compound_1


 31 35  0  0  0  0  0  0  0  0999 V2000
   -2.8101   13.2833   15.4305 C   0  0  0  0  0  0  0  0  0  0  0  0
   -3.4766   14.4008   15.9779 C   0  0  0  0  0  0  0  0  0  0  0  0
   -4.5980   14.9573   15.3285 C   0  0  0  0  0  0  0  0  0  0  0  0
   -5.0596   14.4035   14.1001 C   0  0  0  0  0  0  0  0  0  0  0  0
   -4.3651   13.3007   13.5510 C   0  0  0  0  0  0  0  0  0  0  0  0
   -3.2556   12.7454   14.2082 C   0  0  0  0  0  0  0  0  0  0  0  0
   -5.1943   16.0534   15.9139 O   0  0  0  0  0  0  0  0  0  0  0  0
   -6.4320   16.4682   15.3486 C   0  0  0  0  0  0  0  0  0  0  0  0
   -6.3703   16.3694   13.8218 C   0  0  0  0  0  0  0  0  0  0  0  0
   -6.1541   14.9822   13.4151 N   0  0  0  0  0  0  0  0  0  0  0  0
   -6.9426   14.3369   12.4596 C   0  0  0  0  0  0  0  0  0  0  0  0
   -7.4344   15.0184   11.3899 C   0  0  0  0  0  0  0  0  0  0  0  0
   -8.2183   14.3534   10.3647 C   0  0  0  0  0  0  0  0  0  0  0  0
   -8.4371   12.9992   10.5493 N   0  0  0  0  0  0  0  0  0  0  0  0
   -7.9765   12.2796   11.6509 C   0  0  0  0  0  0  0  0  0  0  0  0
   -7.2561   12.9115   12.5942 C   0  0  0  0  0  0  0  0  0  0  0  0
   -8.7565   14.7665    9.2668 N   0  0  0  0  0  0  0  0  0  0  0  0
   -9.3113   13.6352    8.7516 N   0  0  0  0  0  0  0  0  0  0  0  0
   -9.1193   12.5440    9.5055 C   0  0  0  0  0  0  0  0  0  0  0  0
   -9.4707   11.3862    9.2756 O   0  0  0  0  0  0  0  0  0  0  0  0
   -9.9977   13.7060    7.4687 C   0  0  0  0  0  0  0  0  0  0  0  0
   -1.5820   12.7131   16.0750 C   0  0  0  0  0  0  0  0  0  0  0  0
   -1.7055   11.9693   17.2030 N   0  0  0  0  0  0  0  0  0  0  0  0
   -0.4995   12.9214   15.5234 O   0  0  0  0  0  0  0  0  0  0  0  0
   -2.9470   11.7011   17.9390 C   0  0  0  0  0  0  0  0  0  0  0  0
   -2.8567   12.3623   19.3255 C   0  0  0  0  0  0  0  0  0  0  0  0
   -1.6040   11.8802   20.0834 C   0  0  0  0  0  0  0  0  0  0  0  0
   -0.3270   11.9670   19.2224 C   0  0  0  0  0  0  0  0  0  0  0  0
   -0.5568   11.3192   17.8461 C   0  0  0  0  0  0  0  0  0  0  0  0
   -1.4443   12.6055   21.1905 F   0  0  0  0  0  0  0  0  0  0  0  0
   -1.7921   10.6092   20.4398 F   0  0  0  0  0  0  0  0  0  0  0  0
  2  1  2  0
  3  2  1  0
  4  3  2  0
  5  4  1  0
  6  1  1  0
  6  5  2  0
  7  3  1  0
  8  7  1  0
  9  8  1  0
 10  4  1  0
 10  9  1  0
 22  1  1  0
 23 22  1  0
 24 22  2  0
 25 23  1  0
 26 25  1  0
 27 26  1  0
 28 27  1  0
 29 23  1  0
 29 28  1  0
 30 27  1  0
 31 27  1  0
 11 10  1  0
 12 11  2  0
 13 12  1  0
 14 13  1  0
 15 14  1  0
 16 11  1  0
 16 15  2  0
 17 13  2  0
 18 17  1  0
 19 14  1  0
 19 18  1  0
 20 19  2  0
 21 18  1  0
M  END
> <ID>
compound_1

> <series>
1

> <pKi>
10.5037

> <FEP_pKi>
10.2551

> <smiles>
Cn1nc2cc(N3CCOc4cc(C(=O)N5CCC(F)(F)CC5)ccc43)ccn2c1=O

> <minimizedAffinity>
-13.88355

> <minimizedRMSD>
0.50408

$$$$
compound_2


 31 35  0  0  0  0  0  0  0  0999 V2000
   -2.7647   13.2900   15.5202 C   0  0  0  0  0  0  0  0  0  0  0  0
   -3.3966   14.4067   16.1032 C   0  0  0  0  0  0  0  0  0  0  0  0
   -4.5618   14.9458   15.5207 C   0  0  0  0  0  0  0  0  0  0  0  0
   -5.1194   14.3714   14.3452 C   0  0  0  0  0  0  0  0  0  0  0  0
   -4.4209   13.3049   13.7319 C   0  0  0  0  0  0  0  0  0  0  0  0
   -3.2621   12.7678   14.3133 C   0  0  0  0  0  0  0  0  0  0  0  0
   -6.3270   14.9091   13.8088 C   0  0  0  0  0  0  0  0  0  0  0  0
   -5.1645   16.0645   16.1233 C   0  0  0  0  0  0  0  0  0  0  0  0
   -6.3237   16.6246   15.5646 C   0  0  0  0  0  0  0  0  0  0  0  0
   -6.9015   16.0483   14.4206 C   0  0  0  0  0  0  0  0  0  0  0  0
   -7.0445   14.3265   12.6420 C   0  0  0  0  0  0  0  0  0  0  0  0
   -7.4901   15.1319   11.6410 C   0  0  0  0  0  0  0  0  0  0  0  0
   -8.1996   14.5950   10.4943 C   0  0  0  0  0  0  0  0  0  0  0  0
   -8.4271   13.2324   10.5026 N   0  0  0  0  0  0  0  0  0  0  0  0
   -8.0137   12.3833   11.5241 C   0  0  0  0  0  0  0  0  0  0  0  0
   -7.3402   12.8919   12.5720 C   0  0  0  0  0  0  0  0  0  0  0  0
   -8.6730   15.1390    9.4249 N   0  0  0  0  0  0  0  0  0  0  0  0
   -9.2128   14.0850    8.7566 N   0  0  0  0  0  0  0  0  0  0  0  0
   -9.0810   12.9139    9.3920 C   0  0  0  0  0  0  0  0  0  0  0  0
   -9.4719   11.8043    9.0269 O   0  0  0  0  0  0  0  0  0  0  0  0
   -9.8656   14.3168    7.4751 C   0  0  0  0  0  0  0  0  0  0  0  0
   -1.5429   12.6817   16.1333 C   0  0  0  0  0  0  0  0  0  0  0  0
   -1.6800   11.9638   17.2750 N   0  0  0  0  0  0  0  0  0  0  0  0
   -0.4704   12.8236   15.5447 O   0  0  0  0  0  0  0  0  0  0  0  0
   -2.9241   11.7638   18.0343 C   0  0  0  0  0  0  0  0  0  0  0  0
   -2.7748   12.4190   19.4181 C   0  0  0  0  0  0  0  0  0  0  0  0
   -1.5346   11.8714   20.1520 C   0  0  0  0  0  0  0  0  0  0  0  0
   -0.2699   11.8826   19.2717 C   0  0  0  0  0  0  0  0  0  0  0  0
   -0.5561   11.2529   17.8988 C   0  0  0  0  0  0  0  0  0  0  0  0
   -1.3147   12.5938   21.2497 F   0  0  0  0  0  0  0  0  0  0  0  0
   -1.7826   10.6136   20.5185 F   0  0  0  0  0  0  0  0  0  0  0  0
  2  1  2  0
  3  2  1  0
  4  3  1  0
  5  4  1  0
  6  1  1  0
  6  5  2  0
  7  4  2  0
 22  1  1  0
 23 22  1  0
 24 22  2  0
 25 23  1  0
 26 25  1  0
 27 26  1  0
 28 27  1  0
 29 23  1  0
 29 28  1  0
 30 27  1  0
 31 27  1  0
 11  7  1  0
 12 11  2  0
 13 12  1  0
 14 13  1  0
 15 14  1  0
 16 11  1  0
 16 15  2  0
 17 13  2  0
 18 17  1  0
 19 14  1  0
 19 18  1  0
 20 19  2  0
 21 18  1  0
  8  3  2  0
  9  8  1  0
 10  7  1  0
 10  9  2  0
M  END
> <ID>
compound_2

> <series>
1

> <pKi>
10.1659

> <FEP_pKi>
11.3661

> <smiles>
Cn1nc2cc(-c3cccc4cc(C(=O)N5CCC(F)(F)CC5)ccc34)ccn2c1=O

> <minimizedAffinity>
-15.21581

> <minimizedRMSD>
0.15029

$$$$
compound_20


 26 29  0  0  0  0  0  0  0  0999 V2000
   -2.7200   13.3399   15.5254 C   0  0  0  0  0  0  0  0  0  0  0  0
   -3.3877   14.4248   16.1347 C   0  0  0  0  0  0  0  0  0  0  0  0
   -4.5423   14.9612   15.5180 C   0  0  0  0  0  0  0  0  0  0  0  0
   -4.9439   14.3348   14.3108 C   0  0  0  0  0  0  0  0  0  0  0  0
   -4.2938   13.3270   13.6701 N   0  0  0  0  0  0  0  0  0  0  0  0
   -3.1935   12.8743   14.2905 C   0  0  0  0  0  0  0  0  0  0  0  0
   -6.1300   14.9213   13.9051 N   0  0  0  0  0  0  0  0  0  0  0  0
   -6.4260   15.9548   14.7858 C   0  0  0  0  0  0  0  0  0  0  0  0
   -5.4807   16.0114   15.7782 C   0  0  0  0  0  0  0  0  0  0  0  0
   -1.3752   12.5858   21.2703 F   0  0  0  0  0  0  0  0  0  0  0  0
   -1.5536   11.8961   20.1509 C   0  0  0  0  0  0  0  0  0  0  0  0
   -2.7852   12.4165   19.3943 C   0  0  0  0  0  0  0  0  0  0  0  0
   -2.9052   11.7680   18.0066 C   0  0  0  0  0  0  0  0  0  0  0  0
   -1.6552   11.9855   17.2755 N   0  0  0  0  0  0  0  0  0  0  0  0
   -0.5397   11.2946   17.9244 C   0  0  0  0  0  0  0  0  0  0  0  0
   -0.2840   11.9346   19.2929 C   0  0  0  0  0  0  0  0  0  0  0  0
   -1.5183   12.6857   16.1276 C   0  0  0  0  0  0  0  0  0  0  0  0
   -0.4529   12.7796   15.5218 O   0  0  0  0  0  0  0  0  0  0  0  0
   -6.8992   14.5157   12.7863 C   0  0  0  0  0  0  0  0  0  0  0  0
   -7.1997   13.1545   12.5913 C   0  0  0  0  0  0  0  0  0  0  0  0
   -7.9243   12.7390   11.4629 C   0  0  0  0  0  0  0  0  0  0  0  0
   -8.3405   13.6891   10.5171 C   0  0  0  0  0  0  0  0  0  0  0  0
   -8.0695   15.0490   10.7155 C   0  0  0  0  0  0  0  0  0  0  0  0
   -7.3543   15.4606   11.8510 C   0  0  0  0  0  0  0  0  0  0  0  0
   -9.0512   13.2841    9.3302 C   0  0  0  0  0  0  0  0  0  0  0  0
   -9.6242   12.9697    8.3813 N   0  0  0  0  0  0  0  0  0  0  0  0
 11 10  1  0
 12 11  1  0
 13 12  1  0
 14 13  1  0
 15 14  1  0
 16 11  1  0
 16 15  1  0
 17 14  1  0
 18 17  2  0
  1 17  1  0
  2  1  2  0
  3  2  1  0
  4  3  2  0
  5  4  1  0
  6  1  1  0
  6  5  2  0
  7  4  1  0
  8  7  1  0
  9  3  1  0
  9  8  2  0
 19  7  1  0
 20 19  1  0
 21 20  2  0
 22 21  1  0
 23 22  2  0
 24 19  2  0
 24 23  1  0
 25 22  1  0
 26 25  3  0
M  END
> <ID>
compound_20

> <series>
2

> <pKi>
8.7610

> <FEP_pKi>
9.4648

> <smiles>
N#Cc1ccc(-n2ccc3cc(C(=O)N4CCC(F)CC4)cnc32)cc1

> <minimizedAffinity>
-12.13549

> <minimizedRMSD>
0.06420

$$$$
compound_4


 23 25  0  0  0  0  0  0  0  0999 V2000
   -5.1692   14.2314   14.3025 C   0  0  0  0  0  0  0  0  0  0  0  0
   -4.6808   12.9628   13.9446 C   0  0  0  0  0  0  0  0  0  0  0  0
   -3.5175   12.4508   14.5567 C   0  0  0  0  0  0  0  0  0  0  0  0
   -2.8424   13.2107   15.5299 C   0  0  0  0  0  0  0  0  0  0  0  0
   -3.3131   14.5003   15.8670 C   0  0  0  0  0  0  0  0  0  0  0  0
   -4.4777   15.0106   15.2564 C   0  0  0  0  0  0  0  0  0  0  0  0
   -1.5939   12.6621   16.1473 C   0  0  0  0  0  0  0  0  0  0  0  0
   -0.5258   12.8266   15.5496 O   0  0  0  0  0  0  0  0  0  0  0  0
   -1.6879   11.9674   17.3250 N   0  0  0  0  0  0  0  0  0  0  0  0
   -2.9227   11.7021   18.0634 C   0  0  0  0  0  0  0  0  0  0  0  0
   -2.8346   12.3537   19.4618 C   0  0  0  0  0  0  0  0  0  0  0  0
   -1.5711   11.8951   20.2188 C   0  0  0  0  0  0  0  0  0  0  0  0
   -0.3074   11.9922   19.3462 C   0  0  0  0  0  0  0  0  0  0  0  0
   -0.5313   11.3470   17.9644 C   0  0  0  0  0  0  0  0  0  0  0  0
   -6.4086   14.7606   13.6050 C   0  0  0  0  0  0  0  0  0  0  0  0
   -7.0560   13.7236   12.8704 O   0  0  0  0  0  0  0  0  0  0  0  0
   -8.2120   11.1789   11.6825 Br  0  0  0  0  0  0  0  0  0  0  0  0
   -8.2295   12.9315   10.9542 C   0  0  0  0  0  0  0  0  0  0  0  0
   -8.8261   13.1301    9.6925 C   0  0  0  0  0  0  0  0  0  0  0  0
   -8.8962   14.4194    9.1395 C   0  0  0  0  0  0  0  0  0  0  0  0
   -8.3706   15.5101    9.8562 C   0  0  0  0  0  0  0  0  0  0  0  0
   -7.7536   15.3111   11.1080 C   0  0  0  0  0  0  0  0  0  0  0  0
   -7.6614   14.0110   11.6626 C   0  0  0  0  0  0  0  0  0  0  0  0
 18 17  1  0
 19 18  2  0
 20 19  1  0
 21 20  2  0
 22 21  1  0
 23 18  1  0
 23 22  2  0
 16 23  1  0
 15 16  1  0
  1 15  1  0
  2  1  1  0
  3  2  2  0
  4  3  1  0
  5  4  2  0
  6  1  2  0
  6  5  1  0
  7  4  1  0
  8  7  2  0
  9  7  1  0
 10  9  1  0
 11 10  1  0
 12 11  1  0
 13 12  1  0
 14  9  1  0
 14 13  1  0
M  END
> <ID>
compound_4

> <series>
3

> <pKi>
7.5801

> <FEP_pKi>
8.1488

> <smiles>
O=C(c1ccc(COc2ccccc2Br)cc1)N1CCCCC1

> <minimizedAffinity>
-10.68645

> <minimizedRMSD>
0.32373

$$$$
compound_40


 25 28  0  0  0  0  0  0  0  0999 V2000
   -6.4859   16.6525   15.5172 C   0  0  0  0  0  0  0  0  0  0  0  0
   -5.4468   15.6074   15.3347 C   0  0  0  0  0  0  0  0  0  0  0  0
   -4.3994   15.2965   16.1572 C   0  0  0  0  0  0  0  0  0  0  0  0
   -3.7190   14.2093   15.5658 C   0  0  0  0  0  0  0  0  0  0  0  0
   -4.3109   13.9186   14.3806 C   0  0  0  0  0  0  0  0  0  0  0  0
   -3.8922   12.9053   13.3820 C   0  0  0  0  0  0  0  0  0  0  0  0
   -5.4322   14.7314   14.2496 N   0  0  0  0  0  0  0  0  0  0  0  0
   -2.5463   13.5095   16.0663 C   0  0  0  0  0  0  0  0  0  0  0  0
   -1.4471   13.4839   15.3194 N   0  0  0  0  0  0  0  0  0  0  0  0
   -0.5880   12.6385   15.9291 N   0  0  0  0  0  0  0  0  0  0  0  0
   -1.2025   12.2391   17.0321 C   0  0  0  0  0  0  0  0  0  0  0  0
   -0.5719   11.2887   17.9789 C   0  0  0  0  0  0  0  0  0  0  0  0
   -0.4428   11.8362   19.3938 C   0  0  0  0  0  0  0  0  0  0  0  0
   -1.7502   11.6705   20.1518 C   0  0  0  0  0  0  0  0  0  0  0  0
   -2.8278   12.6457   19.7006 C   0  0  0  0  0  0  0  0  0  0  0  0
   -3.3710   12.5463   18.2662 C   0  0  0  0  0  0  0  0  0  0  0  0
   -2.4178   12.7775   17.2006 N   0  0  0  0  0  0  0  0  0  0  0  0
   -6.3737   14.6574   13.1818 C   0  0  0  0  0  0  0  0  0  0  0  0
   -6.9881   13.4303   12.8554 C   0  0  0  0  0  0  0  0  0  0  0  0
   -7.7514   13.2885   11.6838 C   0  0  0  0  0  0  0  0  0  0  0  0
   -8.3113   11.7337   11.2296 Cl  0  0  0  0  0  0  0  0  0  0  0  0
   -7.9852   14.3911   10.8507 C   0  0  0  0  0  0  0  0  0  0  0  0
   -8.8634   14.2233    9.3742 Cl  0  0  0  0  0  0  0  0  0  0  0  0
   -7.4519   15.6337   11.2180 C   0  0  0  0  0  0  0  0  0  0  0  0
   -6.6389   15.7671   12.3628 C   0  0  0  0  0  0  0  0  0  0  0  0
  2  1  1  0
  3  2  2  0
  4  3  1  0
  5  4  2  0
  6  5  1  0
  7  2  1  0
  7  5  1  0
 18  7  1  0
 19 18  2  0
 20 19  1  0
 21 20  1  0
 22 20  2  0
 23 22  1  0
 24 22  1  0
 25 18  1  0
 25 24  2  0
  8  4  1  0
  9  8  2  0
 10  9  1  0
 11 10  2  0
 12 11  1  0
 13 12  1  0
 14 13  1  0
 15 14  1  0
 16 15  1  0
 17  8  1  0
 17 11  1  0
 17 16  1  0
M  END
> <ID>
compound_40

> <series>
4_5

> <pKi>
8.9297

> <FEP_pKi>
8.4097

> <smiles>
Cc1cc(-c2nnc3n2CCCCC3)c(C)n1-c1ccc(Cl)c(Cl)c1

> <minimizedAffinity>
-11.72258

> <minimizedRMSD>
0.15404

$$$$
compound_41


 31 36  0  0  0  0  0  0  0  0999 V2000
   -6.6701   14.9052   13.4064 N   0  0  0  0  0  0  0  0  0  0  0  0
   -7.4026   15.9204   14.1432 C   0  0  0  0  0  0  0  0  0  0  0  0
   -6.4657   16.9426   14.7671 C   0  0  0  0  0  0  0  0  0  0  0  0
   -5.6398   16.2901   15.7075 O   0  0  0  0  0  0  0  0  0  0  0  0
   -5.0457   15.1572   15.2245 C   0  0  0  0  0  0  0  0  0  0  0  0
   -3.9696   14.6419   15.9468 C   0  0  0  0  0  0  0  0  0  0  0  0
   -3.3330   13.4886   15.4850 C   0  0  0  0  0  0  0  0  0  0  0  0
   -3.7043   12.8769   14.2889 C   0  0  0  0  0  0  0  0  0  0  0  0
   -4.7723   13.3931   13.5708 C   0  0  0  0  0  0  0  0  0  0  0  0
   -5.5000   14.4908   14.0644 C   0  0  0  0  0  0  0  0  0  0  0  0
  -10.2341   13.4479    7.3850 C   0  0  0  0  0  0  0  0  0  0  0  0
   -9.4673   13.4148    8.6159 N   0  0  0  0  0  0  0  0  0  0  0  0
   -8.9447   14.5541    9.1249 N   0  0  0  0  0  0  0  0  0  0  0  0
   -8.4060   14.1563   10.2261 C   0  0  0  0  0  0  0  0  0  0  0  0
   -7.7143   14.8551   11.2843 C   0  0  0  0  0  0  0  0  0  0  0  0
   -7.2753   14.2012   12.3814 C   0  0  0  0  0  0  0  0  0  0  0  0
   -7.4785   12.7613   12.4820 C   0  0  0  0  0  0  0  0  0  0  0  0
   -8.1063   12.0996   11.5013 C   0  0  0  0  0  0  0  0  0  0  0  0
   -8.5650   12.8012   10.3940 N   0  0  0  0  0  0  0  0  0  0  0  0
   -9.2541   12.3359    9.3654 C   0  0  0  0  0  0  0  0  0  0  0  0
   -9.6133   11.1845    9.1411 O   0  0  0  0  0  0  0  0  0  0  0  0
   -2.2602   12.8997   16.1890 C   0  0  0  0  0  0  0  0  0  0  0  0
   -1.0824   12.8799   15.5969 N   0  0  0  0  0  0  0  0  0  0  0  0
   -0.3413   12.1004   16.3846 N   0  0  0  0  0  0  0  0  0  0  0  0
   -1.0725   11.7965   17.4393 C   0  0  0  0  0  0  0  0  0  0  0  0
   -0.5966   11.0135   18.5878 C   0  0  0  0  0  0  0  0  0  0  0  0
   -0.6173   11.8505   19.8646 C   0  0  0  0  0  0  0  0  0  0  0  0
   -1.9946   11.8569   20.5147 C   0  0  0  0  0  0  0  0  0  0  0  0
   -3.0340   12.6206   19.7096 C   0  0  0  0  0  0  0  0  0  0  0  0
   -3.3524   12.0657   18.3179 C   0  0  0  0  0  0  0  0  0  0  0  0
   -2.2955   12.2782   17.3781 N   0  0  0  0  0  0  0  0  0  0  0  0
 12 11  1  0
 13 12  1  0
 14 13  2  0
 15 14  1  0
 16 15  2  0
 17 16  1  0
 18 17  2  0
 19 14  1  0
 19 18  1  0
 20 12  1  0
 20 19  1  0
 21 20  2  0
  1 16  1  0
  2  1  1  0
  3  2  1  0
  4  3  1  0
  5  4  1  0
  6  5  1  0
  7  6  2  0
  8  7  1  0
  9  8  2  0
 10  1  1  0
 10  5  2  0
 10  9  1  0
 22  7  1  0
 23 22  2  0
 24 23  1  0
 25 24  2  0
 26 25  1  0
 27 26  1  0
 28 27  1  0
 29 28  1  0
 30 29  1  0
 31 22  1  0
 31 25  1  0
 31 30  1  0
M  END
> <ID>
compound_41

> <series>
4_5

> <pKi>
9.8786

> <FEP_pKi>
9.3575

> <smiles>
Cn1nc2cc(N3CCOc4cc(-c5nnc6n5CCCCC6)ccc43)ccn2c1=O

> <minimizedAffinity>
-13.32788

> <minimizedRMSD>
0.50493

$$$$
compound_26


 31 35  0  0  0  0  0  0  0  0999 V2000
   -6.4856   14.7837   13.5653 C   0  0  0  0  0  0  0  0  0  0  0  0
   -6.9353   15.9647   14.0201 C   0  0  0  0  0  0  0  0  0  0  0  0
   -6.2080   16.7688   15.0694 C   0  0  0  0  0  0  0  0  0  0  0  0
   -5.3208   16.0040   15.8858 O   0  0  0  0  0  0  0  0  0  0  0  0
   -4.6934   14.9262   15.3051 C   0  0  0  0  0  0  0  0  0  0  0  0
   -5.2160   14.2905   14.1487 C   0  0  0  0  0  0  0  0  0  0  0  0
   -4.5059   13.2027   13.5961 C   0  0  0  0  0  0  0  0  0  0  0  0
   -3.3426   12.7090   14.2138 C   0  0  0  0  0  0  0  0  0  0  0  0
   -2.8678   13.2975   15.4032 C   0  0  0  0  0  0  0  0  0  0  0  0
   -3.5324   14.4252   15.9273 C   0  0  0  0  0  0  0  0  0  0  0  0
  -10.0507   13.5809    7.3587 C   0  0  0  0  0  0  0  0  0  0  0  0
   -9.3874   13.5000    8.6529 N   0  0  0  0  0  0  0  0  0  0  0  0
   -8.8736   14.6254    9.2211 N   0  0  0  0  0  0  0  0  0  0  0  0
   -8.3728   14.1882   10.3274 C   0  0  0  0  0  0  0  0  0  0  0  0
   -7.6605   14.8365   11.4121 C   0  0  0  0  0  0  0  0  0  0  0  0
   -7.1968   14.1231   12.4745 C   0  0  0  0  0  0  0  0  0  0  0  0
   -7.4213   12.6797   12.5178 C   0  0  0  0  0  0  0  0  0  0  0  0
   -8.0938   12.0679   11.5304 C   0  0  0  0  0  0  0  0  0  0  0  0
   -8.5609   12.8257   10.4581 N   0  0  0  0  0  0  0  0  0  0  0  0
   -9.2095   12.3957    9.3873 C   0  0  0  0  0  0  0  0  0  0  0  0
   -9.5616   11.2455    9.1282 O   0  0  0  0  0  0  0  0  0  0  0  0
   -1.6294   12.7512   16.0512 C   0  0  0  0  0  0  0  0  0  0  0  0
   -0.5472   12.9920   15.5131 O   0  0  0  0  0  0  0  0  0  0  0  0
   -1.7452   11.9825   17.1643 N   0  0  0  0  0  0  0  0  0  0  0  0
   -2.9766   11.6919   17.9085 C   0  0  0  0  0  0  0  0  0  0  0  0
   -2.8856   12.3730   19.2876 C   0  0  0  0  0  0  0  0  0  0  0  0
   -1.6186   11.9201   20.0441 C   0  0  0  0  0  0  0  0  0  0  0  0
   -1.4642   12.6659   21.1372 F   0  0  0  0  0  0  0  0  0  0  0  0
   -1.7821   10.6556   20.4314 F   0  0  0  0  0  0  0  0  0  0  0  0
   -0.3487   12.0074   19.1710 C   0  0  0  0  0  0  0  0  0  0  0  0
   -0.5885   11.3431   17.8036 C   0  0  0  0  0  0  0  0  0  0  0  0
 12 11  1  0
 13 12  1  0
 14 13  2  0
 15 14  1  0
 16 15  2  0
 17 16  1  0
 18 17  2  0
 19 14  1  0
 19 18  1  0
 20 12  1  0
 20 19  1  0
 21 20  2  0
  1 16  1  0
  2  1  2  0
  3  2  1  0
  4  3  1  0
  5  4  1  0
  6  1  1  0
  6  5  2  0
  7  6  1  0
  8  7  2  0
  9  8  1  0
 10  5  1  0
 10  9  2  0
 22  9  1  0
 23 22  2  0
 24 22  1  0
 25 24  1  0
 26 25  1  0
 27 26  1  0
 28 27  1  0
 29 27  1  0
 30 27  1  0
 31 24  1  0
 31 30  1  0
M  END
> <ID>
compound_26

> <series>
2

> <pKi>
10.0781

> <FEP_pKi>
8.9614

> <smiles>
Cn1nc2cc(C3=CCOc4cc(C(=O)N5CCC(F)(F)CC5)ccc43)ccn2c1=O

> <minimizedAffinity>
-14.62437

> <minimizedRMSD>
0.42115

$$$$
compound_13


 28 31  0  0  0  0  0  0  0  0999 V2000
   -5.1258   14.4077   14.3933 C   0  0  0  0  0  0  0  0  0  0  0  0
   -4.4326   15.1155   15.3996 C   0  0  0  0  0  0  0  0  0  0  0  0
   -3.2487   14.5885   15.9650 C   0  0  0  0  0  0  0  0  0  0  0  0
   -2.7714   13.3243   15.5506 C   0  0  0  0  0  0  0  0  0  0  0  0
   -3.4298   12.6376   14.5205 C   0  0  0  0  0  0  0  0  0  0  0  0
   -4.5792   13.1857   13.9461 C   0  0  0  0  0  0  0  0  0  0  0  0
   -1.5413   12.7038   16.1263 C   0  0  0  0  0  0  0  0  0  0  0  0
   -0.5002   12.8142   15.4788 O   0  0  0  0  0  0  0  0  0  0  0  0
   -1.6400   11.9909   17.2735 N   0  0  0  0  0  0  0  0  0  0  0  0
   -0.4795   11.3361   17.8882 C   0  0  0  0  0  0  0  0  0  0  0  0
   -0.2452   11.9436   19.2833 C   0  0  0  0  0  0  0  0  0  0  0  0
   -1.5177   11.8624   20.1502 C   0  0  0  0  0  0  0  0  0  0  0  0
   -1.7178   10.5905   20.4943 F   0  0  0  0  0  0  0  0  0  0  0  0
   -1.3432   12.5715   21.2646 F   0  0  0  0  0  0  0  0  0  0  0  0
   -2.7673   12.3744   19.4073 C   0  0  0  0  0  0  0  0  0  0  0  0
   -2.8782   11.7225   18.0176 C   0  0  0  0  0  0  0  0  0  0  0  0
   -6.2692   14.9686   13.8541 O   0  0  0  0  0  0  0  0  0  0  0  0
   -9.6467   14.3493    7.5917 C   0  0  0  0  0  0  0  0  0  0  0  0
   -9.1046   14.1394    8.9269 N   0  0  0  0  0  0  0  0  0  0  0  0
   -8.6039   15.2010    9.6147 N   0  0  0  0  0  0  0  0  0  0  0  0
   -8.1402   14.6622   10.6905 C   0  0  0  0  0  0  0  0  0  0  0  0
   -7.4193   15.2044   11.8300 C   0  0  0  0  0  0  0  0  0  0  0  0
   -6.9453   14.3879   12.8009 C   0  0  0  0  0  0  0  0  0  0  0  0
   -7.2175   12.9500   12.7411 C   0  0  0  0  0  0  0  0  0  0  0  0
   -7.9084   12.4395   11.7059 C   0  0  0  0  0  0  0  0  0  0  0  0
   -8.3573   13.2927   10.6959 N   0  0  0  0  0  0  0  0  0  0  0  0
   -8.9721   12.9676    9.5617 C   0  0  0  0  0  0  0  0  0  0  0  0
   -9.3180   11.8461    9.1716 O   0  0  0  0  0  0  0  0  0  0  0  0
 19 18  1  0
 20 19  1  0
 21 20  2  0
 22 21  1  0
 23 22  2  0
 17 23  1  0
  1 17  1  0
  2  1  1  0
  3  2  2  0
  4  3  1  0
  5  4  2  0
  6  1  2  0
  6  5  1  0
  7  4  1  0
  8  7  2  0
  9  7  1  0
 10  9  1  0
 11 10  1  0
 12 11  1  0
 13 12  1  0
 14 12  1  0
 15 12  1  0
 16  9  1  0
 16 15  1  0
 24 23  1  0
 25 24  2  0
 26 21  1  0
 26 25  1  0
 27 19  1  0
 27 26  1  0
 28 27  2  0
M  END
> <ID>
compound_13

> <series>
1

> <pKi>
7.5881

> <FEP_pKi>
6.5375

> <smiles>
Cn1nc2cc(Oc3ccc(C(=O)N4CCC(F)(F)CC4)cc3)ccn2c1=O

> <minimizedAffinity>
-12.49857

> <minimizedRMSD>
0.19335

$$$$
compound_25


 31 35  0  0  0  0  0  0  0  0999 V2000
   -6.7149   14.9735   13.4253 C   0  0  0  0  0  0  0  0  0  0  0  0
   -7.4120   16.1714   13.7189 C   0  0  0  0  0  0  0  0  0  0  0  0
   -7.0325   16.9894   14.7925 C   0  0  0  0  0  0  0  0  0  0  0  0
   -5.9324   16.6311   15.5802 C   0  0  0  0  0  0  0  0  0  0  0  0
   -5.1874   15.4747   15.2841 C   0  0  0  0  0  0  0  0  0  0  0  0
   -5.5765   14.6214   14.2198 C   0  0  0  0  0  0  0  0  0  0  0  0
   -4.7392   13.3674   13.9764 C   0  0  0  0  0  0  0  0  0  0  0  0
   -3.2906   13.4927   14.4800 C   0  0  0  0  0  0  0  0  0  0  0  0
   -3.2325   13.9569   15.8711 N   0  0  0  0  0  0  0  0  0  0  0  0
   -3.9549   15.2056   16.1349 C   0  0  0  0  0  0  0  0  0  0  0  0
   -2.1568   13.6894   16.6496 C   0  0  0  0  0  0  0  0  0  0  0  0
   -1.4800   14.5799   17.1508 O   0  0  0  0  0  0  0  0  0  0  0  0
   -1.8938   12.3878   16.9116 N   0  0  0  0  0  0  0  0  0  0  0  0
   -2.9546   11.5098   17.3765 C   0  0  0  0  0  0  0  0  0  0  0  0
   -3.1831   11.7908   18.8754 C   0  0  0  0  0  0  0  0  0  0  0  0
   -1.8892   11.4433   19.6435 C   0  0  0  0  0  0  0  0  0  0  0  0
   -2.0053   11.8162   20.9114 F   0  0  0  0  0  0  0  0  0  0  0  0
   -1.6793   10.1293   19.6164 F   0  0  0  0  0  0  0  0  0  0  0  0
   -0.6534   12.1256   19.0367 C   0  0  0  0  0  0  0  0  0  0  0  0
   -0.6169   11.9746   17.5028 C   0  0  0  0  0  0  0  0  0  0  0  0
  -10.3144   13.0734    7.3897 C   0  0  0  0  0  0  0  0  0  0  0  0
   -9.5425   13.0925    8.6249 N   0  0  0  0  0  0  0  0  0  0  0  0
   -9.0506   14.2783    9.0771 N   0  0  0  0  0  0  0  0  0  0  0  0
   -8.4829   13.9561   10.1902 C   0  0  0  0  0  0  0  0  0  0  0  0
   -7.7935   14.7300   11.2071 C   0  0  0  0  0  0  0  0  0  0  0  0
   -7.2805   14.1423   12.3262 C   0  0  0  0  0  0  0  0  0  0  0  0
   -7.4268   12.6971   12.4823 C   0  0  0  0  0  0  0  0  0  0  0  0
   -8.0782   11.9693   11.5590 C   0  0  0  0  0  0  0  0  0  0  0  0
   -8.5938   12.6005   10.4304 N   0  0  0  0  0  0  0  0  0  0  0  0
   -9.2810   12.0565    9.4326 C   0  0  0  0  0  0  0  0  0  0  0  0
   -9.5890   10.8746    9.2783 O   0  0  0  0  0  0  0  0  0  0  0  0
 22 21  1  0
 23 22  1  0
 24 23  2  0
 25 24  1  0
 26 25  2  0
 27 26  1  0
 28 27  2  0
 29 24  1  0
 29 28  1  0
 30 22  1  0
 30 29  1  0
 31 30  2  0
  1 26  1  0
  2  1  1  0
  3  2  2  0
  4  3  1  0
  5  4  2  0
  6  1  2  0
  6  5  1  0
  7  6  1  0
  8  7  1  0
  9  8  1  0
 10  5  1  0
 10  9  1  0
 11  9  1  0
 12 11  2  0
 13 11  1  0
 14 13  1  0
 15 14  1  0
 16 15  1  0
 17 16  1  0
 18 16  1  0
 19 16  1  0
 20 13  1  0
 20 19  1  0
M  END
> <ID>
compound_25

> <series>
2

> <pKi>
7.6414

> <FEP_pKi>
7.9692

> <smiles>
Cn1nc2cc(-c3cccc4c3CCN(C(=O)N3CCC(F)(F)CC3)C4)ccn2c1=O

> <minimizedAffinity>
-13.69201

> <minimizedRMSD>
0.40103

$$$$
compound_22


 28 31  0  0  0  0  0  0  0  0999 V2000
   -5.5796   16.5576   16.8812 C   0  0  0  0  0  0  0  0  0  0  0  0
   -5.5696   15.7776   15.6618 N   0  0  0  0  0  0  0  0  0  0  0  0
   -6.5030   15.8045   14.6904 C   0  0  0  0  0  0  0  0  0  0  0  0
   -7.4840   16.5346   14.6629 O   0  0  0  0  0  0  0  0  0  0  0  0
   -6.1764   14.8757   13.7737 N   0  0  0  0  0  0  0  0  0  0  0  0
   -5.0000   14.2282   14.1668 C   0  0  0  0  0  0  0  0  0  0  0  0
   -4.6231   14.7999   15.3653 C   0  0  0  0  0  0  0  0  0  0  0  0
   -3.4791   14.3661   16.0556 C   0  0  0  0  0  0  0  0  0  0  0  0
   -2.7499   13.3205   15.4439 C   0  0  0  0  0  0  0  0  0  0  0  0
   -3.1854   12.8426   14.1903 C   0  0  0  0  0  0  0  0  0  0  0  0
   -4.2944   13.2678   13.5536 N   0  0  0  0  0  0  0  0  0  0  0  0
   -1.5256   12.7138   16.0504 C   0  0  0  0  0  0  0  0  0  0  0  0
   -0.4617   12.8538   15.4478 O   0  0  0  0  0  0  0  0  0  0  0  0
   -1.6370   11.9962   17.1894 N   0  0  0  0  0  0  0  0  0  0  0  0
   -2.8776   11.7283   17.9195 C   0  0  0  0  0  0  0  0  0  0  0  0
   -2.7726   12.3630   19.3130 C   0  0  0  0  0  0  0  0  0  0  0  0
   -1.5287   11.8645   20.0645 C   0  0  0  0  0  0  0  0  0  0  0  0
   -1.3659   12.5554   21.1849 F   0  0  0  0  0  0  0  0  0  0  0  0
   -0.2614   11.9649   19.2031 C   0  0  0  0  0  0  0  0  0  0  0  0
   -0.4919   11.3406   17.8217 C   0  0  0  0  0  0  0  0  0  0  0  0
   -6.9667   14.4064   12.6856 C   0  0  0  0  0  0  0  0  0  0  0  0
   -7.2971   13.0420   12.5699 C   0  0  0  0  0  0  0  0  0  0  0  0
   -8.0104   12.5746   11.4572 C   0  0  0  0  0  0  0  0  0  0  0  0
   -8.3947   13.4710   10.4482 C   0  0  0  0  0  0  0  0  0  0  0  0
   -8.1068   14.8335   10.5694 C   0  0  0  0  0  0  0  0  0  0  0  0
   -7.4030   15.2987   11.6889 C   0  0  0  0  0  0  0  0  0  0  0  0
   -9.0784   13.0094    9.2707 C   0  0  0  0  0  0  0  0  0  0  0  0
   -9.6377   12.6428    8.3314 N   0  0  0  0  0  0  0  0  0  0  0  0
  2  1  1  0
  3  2  1  0
  4  3  2  0
  5  3  1  0
  6  5  1  0
  7  2  1  0
  7  6  2  0
  8  7  1  0
  9  8  2  0
 10  9  1  0
 11  6  1  0
 11 10  2  0
 12  9  1  0
 13 12  2  0
 14 12  1  0
 15 14  1  0
 16 15  1  0
 17 16  1  0
 18 17  1  0
 19 17  1  0
 20 14  1  0
 20 19  1  0
 21  5  1  0
 22 21  1  0
 23 22  2  0
 24 23  1  0
 25 24  2  0
 26 21  2  0
 26 25  1  0
 27 24  1  0
 28 27  3  0
M  END
> <ID>
compound_22

> <series>
2

> <pKi>
6.1281

> <FEP_pKi>
7.4194

> <smiles>
Cn1c(=O)n(-c2ccc(C#N)cc2)c2ncc(C(=O)N3CCC(F)CC3)cc21

> <minimizedAffinity>
-12.14164

> <minimizedRMSD>
0.10953

$$$$
compound_12


 29 32  0  0  0  0  0  0  0  0999 V2000
   -5.1717   14.4618   14.4244 C   0  0  0  0  0  0  0  0  0  0  0  0
   -4.3513   15.1729   15.3470 C   0  0  0  0  0  0  0  0  0  0  0  0
   -3.1632   14.6219   15.8466 C   0  0  0  0  0  0  0  0  0  0  0  0
   -2.7910   13.3170   15.4903 C   0  0  0  0  0  0  0  0  0  0  0  0
   -3.5503   12.6086   14.5436 C   0  0  0  0  0  0  0  0  0  0  0  0
   -4.7114   13.1872   14.0055 C   0  0  0  0  0  0  0  0  0  0  0  0
   -1.5587   12.7057   16.0560 C   0  0  0  0  0  0  0  0  0  0  0  0
   -0.5189   12.8604   15.4233 O   0  0  0  0  0  0  0  0  0  0  0  0
   -1.6490   11.9932   17.2066 N   0  0  0  0  0  0  0  0  0  0  0  0
   -0.4777   11.3664   17.8250 C   0  0  0  0  0  0  0  0  0  0  0  0
   -0.2633   11.9785   19.2216 C   0  0  0  0  0  0  0  0  0  0  0  0
   -1.5327   11.8525   20.0851 C   0  0  0  0  0  0  0  0  0  0  0  0
   -1.7044   10.5715   20.4112 F   0  0  0  0  0  0  0  0  0  0  0  0
   -1.3758   12.5542   21.2028 F   0  0  0  0  0  0  0  0  0  0  0  0
   -2.7921   12.3427   19.3504 C   0  0  0  0  0  0  0  0  0  0  0  0
   -2.8850   11.7082   17.9526 C   0  0  0  0  0  0  0  0  0  0  0  0
   -6.9424   16.1780   14.5645 C   0  0  0  0  0  0  0  0  0  0  0  0
   -6.4024   14.9724   13.9215 N   0  0  0  0  0  0  0  0  0  0  0  0
   -7.0715   14.4715   12.7927 C   0  0  0  0  0  0  0  0  0  0  0  0
   -7.5026   15.3189   11.8173 C   0  0  0  0  0  0  0  0  0  0  0  0
   -8.1727   14.8434   10.6233 C   0  0  0  0  0  0  0  0  0  0  0  0
   -8.6092   15.4434    9.5663 N   0  0  0  0  0  0  0  0  0  0  0  0
   -9.1016   14.4233    8.8174 N   0  0  0  0  0  0  0  0  0  0  0  0
   -9.7192   14.6762    7.5221 C   0  0  0  0  0  0  0  0  0  0  0  0
   -9.0058   13.2333    9.4073 C   0  0  0  0  0  0  0  0  0  0  0  0
   -9.4225   12.1657    8.9675 O   0  0  0  0  0  0  0  0  0  0  0  0
   -8.3763   13.4784   10.5494 N   0  0  0  0  0  0  0  0  0  0  0  0
   -7.9524   12.5746   11.5279 C   0  0  0  0  0  0  0  0  0  0  0  0
   -7.3276   13.0349   12.6295 C   0  0  0  0  0  0  0  0  0  0  0  0
 18 17  1  0
  1 18  1  0
  2  1  1  0
  3  2  2  0
  4  3  1  0
  5  4  2  0
  6  1  2  0
  6  5  1  0
  7  4  1  0
  8  7  2  0
  9  7  1  0
 10  9  1  0
 11 10  1  0
 12 11  1  0
 13 12  1  0
 14 12  1  0
 15 12  1  0
 16  9  1  0
 16 15  1  0
 19 18  1  0
 20 19  2  0
 21 20  1  0
 22 21  2  0
 23 22  1  0
 24 23  1  0
 25 23  1  0
 26 25  2  0
 27 21  1  0
 27 25  1  0
 28 27  1  0
 29 19  1  0
 29 28  2  0
M  END
> <ID>
compound_12

> <series>
1

> <pKi>
9.6831

> <FEP_pKi>
9.3260

> <smiles>
CN(c1ccc(C(=O)N2CCC(F)(F)CC2)cc1)c1ccn2c(=O)n(C)nc2c1

> <minimizedAffinity>
-12.86423

> <minimizedRMSD>
0.26365

$$$$
compound_44


 30 35  0  0  0  0  0  0  0  0999 V2000
   -6.2688   14.9073   13.7304 N   0  0  0  0  0  0  0  0  0  0  0  0
   -6.9949   15.8528   14.5642 C   0  0  0  0  0  0  0  0  0  0  0  0
   -6.0538   16.8159   15.2614 C   0  0  0  0  0  0  0  0  0  0  0  0
   -5.2145   16.0823   16.1223 O   0  0  0  0  0  0  0  0  0  0  0  0
   -4.6274   14.9880   15.5467 C   0  0  0  0  0  0  0  0  0  0  0  0
   -3.5631   14.4169   16.2364 C   0  0  0  0  0  0  0  0  0  0  0  0
   -2.9721   13.2410   15.7726 C   0  0  0  0  0  0  0  0  0  0  0  0
   -3.3181   12.7362   14.5094 C   0  0  0  0  0  0  0  0  0  0  0  0
   -4.3687   13.3274   13.7922 C   0  0  0  0  0  0  0  0  0  0  0  0
   -5.0977   14.4045   14.3437 C   0  0  0  0  0  0  0  0  0  0  0  0
   -9.8908   14.3174    7.5804 C   0  0  0  0  0  0  0  0  0  0  0  0
   -9.1851   14.1090    8.8317 N   0  0  0  0  0  0  0  0  0  0  0  0
   -8.6034   15.1568    9.4635 N   0  0  0  0  0  0  0  0  0  0  0  0
   -8.1158   14.6250   10.5286 C   0  0  0  0  0  0  0  0  0  0  0  0
   -7.3704   15.1621   11.6462 C   0  0  0  0  0  0  0  0  0  0  0  0
   -6.9323   14.3607   12.6475 C   0  0  0  0  0  0  0  0  0  0  0  0
   -7.2497   12.9463   12.6144 C   0  0  0  0  0  0  0  0  0  0  0  0
   -7.9590   12.4386   11.5963 C   0  0  0  0  0  0  0  0  0  0  0  0
   -8.3709   13.2750   10.5676 N   0  0  0  0  0  0  0  0  0  0  0  0
   -9.0488   12.9528    9.4779 C   0  0  0  0  0  0  0  0  0  0  0  0
   -9.4546   11.8475    9.1320 O   0  0  0  0  0  0  0  0  0  0  0  0
   -2.0529   12.5529   16.6400 C   0  0  0  0  0  0  0  0  0  0  0  0
   -0.8169   12.2688   16.2516 N   0  0  0  0  0  0  0  0  0  0  0  0
   -0.2661   11.5715   17.3005 N   0  0  0  0  0  0  0  0  0  0  0  0
   -1.1429   11.6578   18.2858 C   0  0  0  0  0  0  0  0  0  0  0  0
   -0.9072   11.2520   19.6933 C   0  0  0  0  0  0  0  0  0  0  0  0
   -1.8452   11.9124   20.6755 C   0  0  0  0  0  0  0  0  0  0  0  0
   -3.2733   11.7476   20.1681 C   0  0  0  0  0  0  0  0  0  0  0  0
   -3.4888   12.2898   18.7491 C   0  0  0  0  0  0  0  0  0  0  0  0
   -2.3118   12.1687   17.9117 N   0  0  0  0  0  0  0  0  0  0  0  0
 12 11  1  0
 13 12  1  0
 14 13  2  0
 15 14  1  0
 16 15  2  0
 17 16  1  0
 18 17  2  0
 19 14  1  0
 19 18  1  0
 20 12  1  0
 20 19  1  0
 21 20  2  0
  1 16  1  0
  2  1  1  0
  3  2  1  0
  4  3  1  0
  5  4  1  0
  6  5  1  0
  7  6  2  0
  8  7  1  0
  9  8  2  0
 10  1  1  0
 10  5  2  0
 10  9  1  0
 22  7  1  0
 23 22  2  0
 24 23  1  0
 25 24  2  0
 26 25  1  0
 27 26  1  0
 28 27  1  0
 29 28  1  0
 30 22  1  0
 30 25  1  0
 30 29  1  0
M  END
> <ID>
compound_44

> <series>
4_5

> <pKi>
9.2283

> <FEP_pKi>
9.1344

> <smiles>
Cn1nc2cc(N3CCOc4cc(-c5nnc6n5CCCC6)ccc43)ccn2c1=O

> <minimizedAffinity>
-12.91173

> <minimizedRMSD>
0.19414

$$$$
compound_24


 27 30  0  0  0  0  0  0  0  0999 V2000
   -2.7133   13.1681   15.4023 C   0  0  0  0  0  0  0  0  0  0  0  0
   -3.3632   14.2921   15.8697 C   0  0  0  0  0  0  0  0  0  0  0  0
   -4.4827   14.7154   15.2258 N   0  0  0  0  0  0  0  0  0  0  0  0
   -5.3169   15.7548   15.5245 C   0  0  0  0  0  0  0  0  0  0  0  0
   -6.3190   15.8241   14.6460 N   0  0  0  0  0  0  0  0  0  0  0  0
   -6.1333   14.7810   13.7375 C   0  0  0  0  0  0  0  0  0  0  0  0
   -4.9876   14.0858   14.0683 C   0  0  0  0  0  0  0  0  0  0  0  0
   -4.2650   12.9765   13.5490 C   0  0  0  0  0  0  0  0  0  0  0  0
   -3.1607   12.5202   14.2243 C   0  0  0  0  0  0  0  0  0  0  0  0
   -1.7417   12.7179   21.2296 F   0  0  0  0  0  0  0  0  0  0  0  0
   -1.7843   11.9674   20.1291 C   0  0  0  0  0  0  0  0  0  0  0  0
   -1.9534   10.6954   20.4914 F   0  0  0  0  0  0  0  0  0  0  0  0
   -0.4499   12.0857   19.3706 C   0  0  0  0  0  0  0  0  0  0  0  0
   -0.5408   11.3869   18.0032 C   0  0  0  0  0  0  0  0  0  0  0  0
   -1.6669   11.9593   17.2550 N   0  0  0  0  0  0  0  0  0  0  0  0
   -2.9494   11.6643   17.9142 C   0  0  0  0  0  0  0  0  0  0  0  0
   -2.9890   12.3890   19.2686 C   0  0  0  0  0  0  0  0  0  0  0  0
   -1.5020   12.6385   16.0949 C   0  0  0  0  0  0  0  0  0  0  0  0
   -0.4104   12.8131   15.5502 O   0  0  0  0  0  0  0  0  0  0  0  0
   -7.0251   14.4986   12.6083 C   0  0  0  0  0  0  0  0  0  0  0  0
   -7.4381   13.1771   12.3201 C   0  0  0  0  0  0  0  0  0  0  0  0
   -8.1687   12.8958   11.1523 C   0  0  0  0  0  0  0  0  0  0  0  0
   -8.5171   13.9347   10.2732 C   0  0  0  0  0  0  0  0  0  0  0  0
   -8.1941   15.2666   10.6048 C   0  0  0  0  0  0  0  0  0  0  0  0
   -7.4438   15.5483   11.7641 C   0  0  0  0  0  0  0  0  0  0  0  0
   -9.1873   13.6222    9.0186 C   0  0  0  0  0  0  0  0  0  0  0  0
   -9.7189   13.3659    8.0238 N   0  0  0  0  0  0  0  0  0  0  0  0
 11 10  1  0
 12 11  1  0
 13 11  1  0
 14 13  1  0
 15 14  1  0
 16 15  1  0
 17 11  1  0
 17 16  1  0
 18 15  1  0
 19 18  2  0
  1 18  1  0
  2  1  2  0
  3  2  1  0
  4  3  1  0
  5  4  2  0
  6  5  1  0
  7  3  1  0
  7  6  2  0
  8  7  1  0
  9  1  1  0
  9  8  2  0
 20  6  1  0
 21 20  1  0
 22 21  2  0
 23 22  1  0
 24 23  2  0
 25 20  2  0
 25 24  1  0
 26 23  1  0
 27 26  3  0
M  END
> <ID>
compound_24

> <series>
2

> <pKi>
7.2855

> <FEP_pKi>
6.4663

> <smiles>
N#Cc1ccc(-c2ncn3cc(C(=O)N4CCC(F)(F)CC4)ccc23)cc1

> <minimizedAffinity>
-12.54909

> <minimizedRMSD>
0.91690

$$$$
compound_45


 29 34  0  0  0  0  0  0  0  0999 V2000
   -6.1852   14.8973   13.7525 N   0  0  0  0  0  0  0  0  0  0  0  0
   -6.8967   15.8793   14.5586 C   0  0  0  0  0  0  0  0  0  0  0  0
   -5.9412   16.8029   15.2823 C   0  0  0  0  0  0  0  0  0  0  0  0
   -5.1654   16.0400   16.1737 O   0  0  0  0  0  0  0  0  0  0  0  0
   -4.5823   14.9364   15.6130 C   0  0  0  0  0  0  0  0  0  0  0  0
   -3.5450   14.3430   16.3339 C   0  0  0  0  0  0  0  0  0  0  0  0
   -2.9345   13.1712   15.8794 C   0  0  0  0  0  0  0  0  0  0  0  0
   -3.2708   12.6773   14.6053 C   0  0  0  0  0  0  0  0  0  0  0  0
   -4.3075   13.2804   13.8666 C   0  0  0  0  0  0  0  0  0  0  0  0
   -5.0356   14.3700   14.3961 C   0  0  0  0  0  0  0  0  0  0  0  0
   -9.8836   14.2591    7.6343 C   0  0  0  0  0  0  0  0  0  0  0  0
   -9.1665   14.0635    8.8822 N   0  0  0  0  0  0  0  0  0  0  0  0
   -8.5968   15.1203    9.5126 N   0  0  0  0  0  0  0  0  0  0  0  0
   -8.0930   14.5937   10.5752 C   0  0  0  0  0  0  0  0  0  0  0  0
   -7.3344   15.1384   11.6820 C   0  0  0  0  0  0  0  0  0  0  0  0
   -6.8716   14.3446   12.6807 C   0  0  0  0  0  0  0  0  0  0  0  0
   -7.2024   12.9298   12.6615 C   0  0  0  0  0  0  0  0  0  0  0  0
   -7.9237   12.4145   11.6526 C   0  0  0  0  0  0  0  0  0  0  0  0
   -8.3432   13.2423   10.6196 N   0  0  0  0  0  0  0  0  0  0  0  0
   -9.0196   12.9100    9.5301 C   0  0  0  0  0  0  0  0  0  0  0  0
   -9.4312   11.8026    9.1920 O   0  0  0  0  0  0  0  0  0  0  0  0
   -2.0276   12.4686   16.7705 C   0  0  0  0  0  0  0  0  0  0  0  0
   -0.7650   12.1758   16.4448 N   0  0  0  0  0  0  0  0  0  0  0  0
   -0.2288   11.4969   17.5308 N   0  0  0  0  0  0  0  0  0  0  0  0
   -1.1968   11.4997   18.4259 C   0  0  0  0  0  0  0  0  0  0  0  0
   -1.2898   11.0455   19.8267 C   0  0  0  0  0  0  0  0  0  0  0  0
   -2.6929   11.5053   20.2498 C   0  0  0  0  0  0  0  0  0  0  0  0
   -3.3912   12.0050   18.9651 C   0  0  0  0  0  0  0  0  0  0  0  0
   -2.3152   12.0409   18.0197 N   0  0  0  0  0  0  0  0  0  0  0  0
 12 11  1  0
 13 12  1  0
 14 13  2  0
 15 14  1  0
 16 15  2  0
 17 16  1  0
 18 17  2  0
 19 14  1  0
 19 18  1  0
 20 12  1  0
 20 19  1  0
 21 20  2  0
  1 16  1  0
  2  1  1  0
  3  2  1  0
  4  3  1  0
  5  4  1  0
  6  5  1  0
  7  6  2  0
  8  7  1  0
  9  8  2  0
 10  1  1  0
 10  5  2  0
 10  9  1  0
 22  7  1  0
 23 22  2  0
 24 23  1  0
 25 24  2  0
 26 25  1  0
 27 26  1  0
 28 27  1  0
 29 22  1  0
 29 25  1  0
 29 28  1  0
M  END
> <ID>
compound_45

> <series>
4_5

> <pKi>
7.5937

> <FEP_pKi>
8.5678

> <smiles>
Cn1nc2cc(N3CCOc4cc(-c5nnc6n5CCC6)ccc43)ccn2c1=O

> <minimizedAffinity>
-12.65580

> <minimizedRMSD>
0.31080

$$$$
compound_46


 31 36  0  0  0  0  0  0  0  0999 V2000
   -6.5493   14.8754   13.3447 N   0  0  0  0  0  0  0  0  0  0  0  0
   -7.3082   15.8838   14.0683 C   0  0  0  0  0  0  0  0  0  0  0  0
   -6.3972   16.9097   14.7201 C   0  0  0  0  0  0  0  0  0  0  0  0
   -5.5660   16.2628   15.6558 O   0  0  0  0  0  0  0  0  0  0  0  0
   -4.9576   15.1307   15.1878 C   0  0  0  0  0  0  0  0  0  0  0  0
   -3.9010   14.6224   15.9386 C   0  0  0  0  0  0  0  0  0  0  0  0
   -3.2694   13.4403   15.5463 C   0  0  0  0  0  0  0  0  0  0  0  0
   -3.6058   12.8196   14.3375 C   0  0  0  0  0  0  0  0  0  0  0  0
   -4.6588   13.3322   13.5774 C   0  0  0  0  0  0  0  0  0  0  0  0
   -5.3939   14.4503   14.0256 C   0  0  0  0  0  0  0  0  0  0  0  0
  -10.2225   13.4778    7.3621 C   0  0  0  0  0  0  0  0  0  0  0  0
   -9.4734   13.4307    8.6050 N   0  0  0  0  0  0  0  0  0  0  0  0
   -8.9395   14.5650    9.1205 N   0  0  0  0  0  0  0  0  0  0  0  0
   -8.4005   14.1626   10.2192 C   0  0  0  0  0  0  0  0  0  0  0  0
   -7.6701   14.8463   11.2636 C   0  0  0  0  0  0  0  0  0  0  0  0
   -7.1877   14.1798   12.3365 C   0  0  0  0  0  0  0  0  0  0  0  0
   -7.4332   12.7517   12.4574 C   0  0  0  0  0  0  0  0  0  0  0  0
   -8.1142   12.1050   11.4989 C   0  0  0  0  0  0  0  0  0  0  0  0
   -8.5777   12.8113   10.3931 N   0  0  0  0  0  0  0  0  0  0  0  0
   -9.2616   12.3499    9.3544 C   0  0  0  0  0  0  0  0  0  0  0  0
   -9.6259   11.2000    9.1267 O   0  0  0  0  0  0  0  0  0  0  0  0
   -2.2882   12.8530   16.3989 C   0  0  0  0  0  0  0  0  0  0  0  0
   -1.0887   12.5074   15.9476 N   0  0  0  0  0  0  0  0  0  0  0  0
   -0.4770   11.8750   17.0027 N   0  0  0  0  0  0  0  0  0  0  0  0
   -1.2399   12.1392   18.0330 C   0  0  0  0  0  0  0  0  0  0  0  0
   -1.0469   12.0710   19.4890 C   0  0  0  0  0  0  0  0  0  0  0  0
   -2.5026   12.2195   19.9760 C   0  0  0  0  0  0  0  0  0  0  0  0
   -3.3511   12.6878   18.7625 C   0  0  0  0  0  0  0  0  0  0  0  0
   -2.4135   12.5938   17.7079 N   0  0  0  0  0  0  0  0  0  0  0  0
   -2.9412   10.8665   20.4422 C   0  0  0  0  0  0  0  0  0  0  0  0
   -2.7924   13.1176   21.1489 C   0  0  0  0  0  0  0  0  0  0  0  0
 12 11  1  0
 13 12  1  0
 14 13  2  0
 15 14  1  0
 16 15  2  0
 17 16  1  0
 18 17  2  0
 19 14  1  0
 19 18  1  0
 20 12  1  0
 20 19  1  0
 21 20  2  0
  1 16  1  0
  2  1  1  0
  3  2  1  0
  4  3  1  0
  5  4  1  0
  6  5  1  0
  7  6  2  0
  8  7  1  0
  9  8  2  0
 10  1  1  0
 10  5  2  0
 10  9  1  0
 22  7  1  0
 23 22  2  0
 24 23  1  0
 25 24  2  0
 26 25  1  0
 27 26  1  0
 28 27  1  0
 29 22  1  0
 29 25  1  0
 29 28  1  0
 30 27  1  0
 31 27  1  0
M  END
> <ID>
compound_46

> <series>
4_5

> <pKi>
8.5097

> <FEP_pKi>
8.0745

> <smiles>
Cn1nc2cc(N3CCOc4cc(-c5nnc6n5CC(C)(C)C6)ccc43)ccn2c1=O

> <minimizedAffinity>
-12.04565

> <minimizedRMSD>
0.57992

$$$$
compound_42


 31 36  0  0  0  0  0  0  0  0999 V2000
   -3.1603   13.3822   15.6306 C   0  0  0  0  0  0  0  0  0  0  0  0
   -3.7385   14.6142   15.9857 C   0  0  0  0  0  0  0  0  0  0  0  0
   -4.8606   15.0820   15.2896 C   0  0  0  0  0  0  0  0  0  0  0  0
   -5.3535   14.3682   14.1548 C   0  0  0  0  0  0  0  0  0  0  0  0
   -4.6434   13.2192   13.7044 C   0  0  0  0  0  0  0  0  0  0  0  0
   -3.5634   12.7125   14.4510 C   0  0  0  0  0  0  0  0  0  0  0  0
   -6.5345   14.8480   13.5127 C   0  0  0  0  0  0  0  0  0  0  0  0
   -5.5008   16.2458   15.7668 C   0  0  0  0  0  0  0  0  0  0  0  0
   -6.6419   16.7301   15.1059 C   0  0  0  0  0  0  0  0  0  0  0  0
   -7.1487   16.0383   13.9864 C   0  0  0  0  0  0  0  0  0  0  0  0
   -7.2041   14.1349   12.3876 C   0  0  0  0  0  0  0  0  0  0  0  0
   -7.6825   14.8387   11.3202 C   0  0  0  0  0  0  0  0  0  0  0  0
   -8.4064   14.1800   10.2383 C   0  0  0  0  0  0  0  0  0  0  0  0
   -8.6030   12.8090   10.3798 N   0  0  0  0  0  0  0  0  0  0  0  0
   -8.1345   12.0650   11.4757 C   0  0  0  0  0  0  0  0  0  0  0  0
   -7.4448   12.6858   12.4548 C   0  0  0  0  0  0  0  0  0  0  0  0
   -8.9294   14.6124    9.1337 N   0  0  0  0  0  0  0  0  0  0  0  0
   -9.4723   13.4838    8.5774 N   0  0  0  0  0  0  0  0  0  0  0  0
   -9.2854   12.3757    9.3141 C   0  0  0  0  0  0  0  0  0  0  0  0
   -9.6644   11.2277    9.0612 O   0  0  0  0  0  0  0  0  0  0  0  0
  -10.2044   13.5617    7.3123 C   0  0  0  0  0  0  0  0  0  0  0  0
   -2.1869   12.7823   16.5155 C   0  0  0  0  0  0  0  0  0  0  0  0
   -2.3228   12.5568   17.8564 N   0  0  0  0  0  0  0  0  0  0  0  0
   -1.1112   12.0554   18.1487 C   0  0  0  0  0  0  0  0  0  0  0  0
   -0.3865   11.7840   17.0724 N   0  0  0  0  0  0  0  0  0  0  0  0
   -1.0137   12.3925   16.0278 N   0  0  0  0  0  0  0  0  0  0  0  0
   -3.4190   12.8608   18.7823 C   0  0  0  0  0  0  0  0  0  0  0  0
   -3.7954   11.7110   19.7395 C   0  0  0  0  0  0  0  0  0  0  0  0
   -2.7571   11.4078   20.8392 C   0  0  0  0  0  0  0  0  0  0  0  0
   -1.4631   10.8184   20.2774 C   0  0  0  0  0  0  0  0  0  0  0  0
   -0.6186   11.8445   19.5376 C   0  0  0  0  0  0  0  0  0  0  0  0
  2  1  2  0
  3  2  1  0
  4  3  1  0
  5  4  1  0
  6  1  1  0
  6  5  2  0
  7  4  2  0
 11  7  1  0
 12 11  2  0
 13 12  1  0
 14 13  1  0
 15 14  1  0
 16 11  1  0
 16 15  2  0
 17 13  2  0
 18 17  1  0
 19 14  1  0
 19 18  1  0
 20 19  2  0
 21 18  1  0
  8  3  2  0
  9  8  1  0
 10  7  1  0
 10  9  2  0
 22  1  1  0
 23 22  1  0
 24 23  1  0
 25 24  2  0
 26 22  2  0
 26 25  1  0
 27 23  1  0
 28 27  1  0
 29 28  1  0
 30 29  1  0
 31 24  1  0
 31 30  1  0
M  END
> <ID>
compound_42

> <series>
4_5

> <pKi>
9.8588

> <FEP_pKi>
8.1563

> <smiles>
Cn1nc2cc(-c3cccc4cc(-c5nnc6n5CCCCC6)ccc34)ccn2c1=O

> <minimizedAffinity>
-14.70544

> <minimizedRMSD>
0.51657

$$$$
compound_17


 29 32  0  0  0  0  0  0  0  0999 V2000
   -5.2469   14.3819   14.3674 C   0  0  0  0  0  0  0  0  0  0  0  0
   -4.5708   15.1114   15.3660 C   0  0  0  0  0  0  0  0  0  0  0  0
   -3.3823   14.6118   15.8907 C   0  0  0  0  0  0  0  0  0  0  0  0
   -2.9147   13.3565   15.4667 C   0  0  0  0  0  0  0  0  0  0  0  0
   -3.6370   12.7014   14.4464 C   0  0  0  0  0  0  0  0  0  0  0  0
   -4.7697   13.2005   13.9049 N   0  0  0  0  0  0  0  0  0  0  0  0
   -1.6548   12.7642   16.0074 C   0  0  0  0  0  0  0  0  0  0  0  0
   -0.6326   12.9641   15.3630 O   0  0  0  0  0  0  0  0  0  0  0  0
   -1.6985   12.0153   17.1342 N   0  0  0  0  0  0  0  0  0  0  0  0
   -2.9125   11.6697   17.8930 C   0  0  0  0  0  0  0  0  0  0  0  0
   -2.8397   12.2880   19.2952 C   0  0  0  0  0  0  0  0  0  0  0  0
   -1.5436   11.8619   20.0151 C   0  0  0  0  0  0  0  0  0  0  0  0
   -0.2842   12.0474   19.1426 C   0  0  0  0  0  0  0  0  0  0  0  0
   -0.4935   11.4335   17.7500 C   0  0  0  0  0  0  0  0  0  0  0  0
   -1.4127   12.5396   21.1697 F   0  0  0  0  0  0  0  0  0  0  0  0
   -1.6492   10.5772   20.3109 F   0  0  0  0  0  0  0  0  0  0  0  0
   -6.4240   14.8883   13.7755 N   0  0  0  0  0  0  0  0  0  0  0  0
   -6.8416   16.1826   14.3229 C   0  0  0  0  0  0  0  0  0  0  0  0
   -7.0856   14.2820   12.7015 C   0  0  0  0  0  0  0  0  0  0  0  0
   -7.5152   15.0167   11.6398 C   0  0  0  0  0  0  0  0  0  0  0  0
   -8.2050   14.4051   10.5187 C   0  0  0  0  0  0  0  0  0  0  0  0
   -8.3972   13.0389   10.6002 N   0  0  0  0  0  0  0  0  0  0  0  0
   -7.9868   12.2560   11.6763 C   0  0  0  0  0  0  0  0  0  0  0  0
   -7.3491   12.8383   12.7076 C   0  0  0  0  0  0  0  0  0  0  0  0
   -8.6777   14.8777    9.4140 N   0  0  0  0  0  0  0  0  0  0  0  0
   -9.1867   13.7785    8.8001 N   0  0  0  0  0  0  0  0  0  0  0  0
   -9.0231   12.6565    9.5001 C   0  0  0  0  0  0  0  0  0  0  0  0
   -9.3897   11.5316    9.1852 O   0  0  0  0  0  0  0  0  0  0  0  0
   -9.8374   13.9071    7.5029 C   0  0  0  0  0  0  0  0  0  0  0  0
  8  7  2  0
  9  7  1  0
 10  9  1  0
 11 10  1  0
 12 11  1  0
 13 12  1  0
 14  9  1  0
 14 13  1  0
 15 12  1  0
 16 12  1  0
 17  1  1  0
 19 17  1  0
 20 19  2  0
 21 20  1  0
 22 21  1  0
 23 22  1  0
 24 19  1  0
 24 23  2  0
 25 21  2  0
 26 25  1  0
 27 22  1  0
 27 26  1  0
 28 27  2  0
 29 26  1  0
  2  1  2  0
  3  2  1  0
  4  7  1  0
  4  3  2  0
  5  4  1  0
  6  1  1  0
  6  5  2  0
 18 17  1  0
M  END
> <ID>
compound_17

> <series>
1

> <pKi>
9.2006

> <FEP_pKi>
9.0936

> <smiles>
CN(c1ccn2c(=O)n(C)nc2c1)c1ccc(C(=O)N2CCC(F)(F)CC2)cn1

> <minimizedAffinity>
-12.34070

> <minimizedRMSD>
0.45956

$$$$
compound_23


 27 30  0  0  0  0  0  0  0  0999 V2000
   -2.7517   13.3748   15.4517 C   0  0  0  0  0  0  0  0  0  0  0  0
   -3.3971   14.4397   16.0450 C   0  0  0  0  0  0  0  0  0  0  0  0
   -4.5566   14.9691   15.4178 C   0  0  0  0  0  0  0  0  0  0  0  0
   -5.3881   15.9669   15.7043 N   0  0  0  0  0  0  0  0  0  0  0  0
   -6.3666   15.9459   14.7163 C   0  0  0  0  0  0  0  0  0  0  0  0
   -6.1505   14.9313   13.8261 C   0  0  0  0  0  0  0  0  0  0  0  0
   -4.9642   14.3254   14.2258 N   0  0  0  0  0  0  0  0  0  0  0  0
   -4.3350   13.3059   13.5879 N   0  0  0  0  0  0  0  0  0  0  0  0
   -3.2506   12.8912   14.2238 C   0  0  0  0  0  0  0  0  0  0  0  0
   -1.4620   12.5532   21.1841 F   0  0  0  0  0  0  0  0  0  0  0  0
   -1.6121   11.8706   20.0545 C   0  0  0  0  0  0  0  0  0  0  0  0
   -1.8240   10.6029   20.3678 F   0  0  0  0  0  0  0  0  0  0  0  0
   -0.3283   11.9495   19.2189 C   0  0  0  0  0  0  0  0  0  0  0  0
   -0.5493   11.3301   17.8344 C   0  0  0  0  0  0  0  0  0  0  0  0
   -1.6771   12.0008   17.1881 N   0  0  0  0  0  0  0  0  0  0  0  0
   -2.9282   11.7443   17.8977 C   0  0  0  0  0  0  0  0  0  0  0  0
   -2.8424   12.3734   19.2930 C   0  0  0  0  0  0  0  0  0  0  0  0
   -1.5401   12.7309   16.0565 C   0  0  0  0  0  0  0  0  0  0  0  0
   -0.4648   12.8666   15.4735 O   0  0  0  0  0  0  0  0  0  0  0  0
   -6.9325   14.4693   12.6767 C   0  0  0  0  0  0  0  0  0  0  0  0
   -7.2510   13.1046   12.5266 C   0  0  0  0  0  0  0  0  0  0  0  0
   -7.9836   12.6509   11.4157 C   0  0  0  0  0  0  0  0  0  0  0  0
   -8.4024   13.5675   10.4390 C   0  0  0  0  0  0  0  0  0  0  0  0
   -8.1176   14.9287   10.5897 C   0  0  0  0  0  0  0  0  0  0  0  0
   -7.3907   15.3758   11.7042 C   0  0  0  0  0  0  0  0  0  0  0  0
   -9.1229   13.1357    9.2651 C   0  0  0  0  0  0  0  0  0  0  0  0
   -9.7029   12.7992    8.3273 N   0  0  0  0  0  0  0  0  0  0  0  0
 11 10  1  0
 12 11  1  0
 13 11  1  0
 14 13  1  0
 15 14  1  0
 16 15  1  0
 17 11  1  0
 17 16  1  0
 18 15  1  0
 19 18  2  0
  1 18  1  0
  2  1  2  0
  3  2  1  0
  4  3  2  0
  5  4  1  0
  6  5  2  0
  7  3  1  0
  7  6  1  0
  8  7  1  0
  9  1  1  0
  9  8  2  0
 20  6  1  0
 21 20  1  0
 22 21  2  0
 23 22  1  0
 24 23  2  0
 25 20  2  0
 25 24  1  0
 26 23  1  0
 27 26  3  0
M  END
> <ID>
compound_23

> <series>
2

> <pKi>
7.9581

> <FEP_pKi>
6.8109

> <smiles>
N#Cc1ccc(-c2cnc3cc(C(=O)N4CCC(F)(F)CC4)cnn23)cc1

> <minimizedAffinity>
-12.56594

> <minimizedRMSD>
0.11681

$$$$
compound_18


 29 32  0  0  0  0  0  0  0  0999 V2000
   -5.1377   14.4625   14.4456 C   0  0  0  0  0  0  0  0  0  0  0  0
   -4.4284   15.1610   15.4452 C   0  0  0  0  0  0  0  0  0  0  0  0
   -3.2524   14.6125   15.9877 C   0  0  0  0  0  0  0  0  0  0  0  0
   -2.8136   13.3600   15.5235 C   0  0  0  0  0  0  0  0  0  0  0  0
   -3.4446   12.6827   14.5626 N   0  0  0  0  0  0  0  0  0  0  0  0
   -4.5530   13.2286   14.0572 C   0  0  0  0  0  0  0  0  0  0  0  0
   -1.5722   12.7337   16.0531 C   0  0  0  0  0  0  0  0  0  0  0  0
   -0.5391   12.9056   15.4108 O   0  0  0  0  0  0  0  0  0  0  0  0
   -1.6528   11.9972   17.1887 N   0  0  0  0  0  0  0  0  0  0  0  0
   -2.8887   11.7205   17.9353 C   0  0  0  0  0  0  0  0  0  0  0  0
   -2.7795   12.3311   19.3449 C   0  0  0  0  0  0  0  0  0  0  0  0
   -1.5031   11.8631   20.0713 C   0  0  0  0  0  0  0  0  0  0  0  0
   -1.3507   12.5340   21.2153 F   0  0  0  0  0  0  0  0  0  0  0  0
   -1.6665   10.5771   20.3710 F   0  0  0  0  0  0  0  0  0  0  0  0
   -0.2384   11.9795   19.1937 C   0  0  0  0  0  0  0  0  0  0  0  0
   -0.4681   11.3737   17.7930 C   0  0  0  0  0  0  0  0  0  0  0  0
   -6.8875   16.1286   14.5842 C   0  0  0  0  0  0  0  0  0  0  0  0
   -6.3255   14.9794   13.8650 N   0  0  0  0  0  0  0  0  0  0  0  0
   -6.9984   14.4295   12.7748 C   0  0  0  0  0  0  0  0  0  0  0  0
   -7.4331   15.2231   11.7597 C   0  0  0  0  0  0  0  0  0  0  0  0
   -8.1410   14.6681   10.6205 C   0  0  0  0  0  0  0  0  0  0  0  0
   -8.6255   15.1907    9.5466 N   0  0  0  0  0  0  0  0  0  0  0  0
   -9.1447   14.1231    8.8865 N   0  0  0  0  0  0  0  0  0  0  0  0
   -9.8070   14.3312    7.6060 C   0  0  0  0  0  0  0  0  0  0  0  0
   -8.9887   12.9666    9.5295 C   0  0  0  0  0  0  0  0  0  0  0  0
   -9.3715   11.8575    9.1696 O   0  0  0  0  0  0  0  0  0  0  0  0
   -8.3320   13.2966   10.6290 N   0  0  0  0  0  0  0  0  0  0  0  0
   -7.9058   12.4603   11.6513 C   0  0  0  0  0  0  0  0  0  0  0  0
   -7.2920   12.9966   12.7049 C   0  0  0  0  0  0  0  0  0  0  0  0
 18 17  1  0
  1 18  1  0
  2  1  2  0
  3  2  1  0
  4  3  2  0
  5  4  1  0
  6  1  1  0
  6  5  2  0
  7  4  1  0
  8  7  2  0
  9  7  1  0
 10  9  1  0
 11 10  1  0
 12 11  1  0
 13 12  1  0
 14 12  1  0
 15 12  1  0
 16  9  1  0
 16 15  1  0
 19 18  1  0
 20 19  2  0
 21 20  1  0
 22 21  2  0
 23 22  1  0
 24 23  1  0
 25 23  1  0
 26 25  2  0
 27 21  1  0
 27 25  1  0
 28 27  1  0
 29 19  1  0
 29 28  2  0
M  END
> <ID>
compound_18

> <series>
1

> <pKi>
7.9000

> <FEP_pKi>
9.0000

> <smiles>
CN(c1ccc(C(=O)N2CCC(F)(F)CC2)nc1)c1ccn2c(=O)n(C)nc2c1

> <minimizedAffinity>
-12.22484

> <minimizedRMSD>
0.16484

$$$$
compound_21


 28 31  0  0  0  0  0  0  0  0999 V2000
   -7.6170   16.6324   14.3594 C   0  0  0  0  0  0  0  0  0  0  0  0
   -6.5132   15.6527   14.4746 N   0  0  0  0  0  0  0  0  0  0  0  0
   -6.2631   14.5241   13.6846 N   0  0  0  0  0  0  0  0  0  0  0  0
   -5.1069   13.9180   14.1638 C   0  0  0  0  0  0  0  0  0  0  0  0
   -4.6263   14.6661   15.2014 C   0  0  0  0  0  0  0  0  0  0  0  0
   -3.4388   14.3304   15.8649 C   0  0  0  0  0  0  0  0  0  0  0  0
   -2.7959   13.1664   15.3952 C   0  0  0  0  0  0  0  0  0  0  0  0
   -3.3713   12.4704   14.3084 C   0  0  0  0  0  0  0  0  0  0  0  0
   -4.5316   12.8133   13.7018 N   0  0  0  0  0  0  0  0  0  0  0  0
   -5.5610   15.7879   15.3206 C   0  0  0  0  0  0  0  0  0  0  0  0
   -5.5850   16.7641   15.9430 O   0  0  0  0  0  0  0  0  0  0  0  0
   -1.5449   12.6726   16.0472 C   0  0  0  0  0  0  0  0  0  0  0  0
   -0.4732   12.9174   15.4968 O   0  0  0  0  0  0  0  0  0  0  0  0
   -1.6414   11.9632   17.1954 N   0  0  0  0  0  0  0  0  0  0  0  0
   -2.8887   11.5993   17.8666 C   0  0  0  0  0  0  0  0  0  0  0  0
   -2.9192   12.2552   19.2669 C   0  0  0  0  0  0  0  0  0  0  0  0
   -1.6670   11.9663   20.1381 C   0  0  0  0  0  0  0  0  0  0  0  0
   -1.7408   10.6973   20.5175 F   0  0  0  0  0  0  0  0  0  0  0  0
   -0.3762   12.1151   19.2879 C   0  0  0  0  0  0  0  0  0  0  0  0
   -0.4646   11.4462   17.8984 C   0  0  0  0  0  0  0  0  0  0  0  0
   -6.8777   14.4161   12.4455 C   0  0  0  0  0  0  0  0  0  0  0  0
   -7.3644   13.1397   12.2141 C   0  0  0  0  0  0  0  0  0  0  0  0
   -8.1952   12.7862   11.1798 C   0  0  0  0  0  0  0  0  0  0  0  0
   -8.4115   13.7273   10.1820 C   0  0  0  0  0  0  0  0  0  0  0  0
   -7.8137   15.0063   10.2878 C   0  0  0  0  0  0  0  0  0  0  0  0
   -7.0716   15.3861   11.4393 C   0  0  0  0  0  0  0  0  0  0  0  0
   -9.2105   13.3413    9.0388 C   0  0  0  0  0  0  0  0  0  0  0  0
   -9.8470   13.0310    8.1261 N   0  0  0  0  0  0  0  0  0  0  0  0
  2  1  1  0
  3  2  1  0
  4  3  1  0
  5  4  2  0
  6  5  1  0
  7  6  2  0
  8  7  1  0
  9  4  1  0
  9  8  2  0
 12  7  1  0
 13 12  2  0
 14 12  1  0
 15 14  1  0
 16 15  1  0
 17 16  1  0
 18 17  1  0
 19 17  1  0
 20 14  1  0
 20 19  1  0
 10  2  1  0
 10  5  1  0
 11 10  2  0
 21  3  1  0
 22 21  1  0
 23 22  2  0
 24 23  1  0
 25 24  2  0
 26 21  2  0
 26 25  1  0
 27 24  1  0
 28 27  3  0
M  END
> <ID>
compound_21

> <series>
2

> <pKi>
7.1283

> <FEP_pKi>
6.8695

> <smiles>
Cn1c(=O)c2cc(C(=O)N3CCC(F)CC3)cnc2n1-c1ccc(C#N)cc1

> <minimizedAffinity>
-12.39447

> <minimizedRMSD>
0.95107

$$$$
compound_35


 31 34  0  0  0  0  0  0  0  0999 V2000
   -7.0105   13.6216   12.4918 O   0  0  0  0  0  0  0  0  0  0  0  0
   -8.2993   12.9801   10.5110 C   0  0  0  0  0  0  0  0  0  0  0  0
   -8.9545   13.3750    9.3256 C   0  0  0  0  0  0  0  0  0  0  0  0
   -9.0669   14.7192    8.9657 C   0  0  0  0  0  0  0  0  0  0  0  0
   -8.5678   15.7054    9.8208 C   0  0  0  0  0  0  0  0  0  0  0  0
   -7.8973   15.3455   11.0001 C   0  0  0  0  0  0  0  0  0  0  0  0
   -7.7227   13.9852   11.3567 C   0  0  0  0  0  0  0  0  0  0  0  0
   -8.7340    7.6545   11.8888 N   0  0  0  0  0  0  0  0  0  0  0  0
   -8.5718    8.9240   11.4473 C   0  0  0  0  0  0  0  0  0  0  0  0
   -8.5910    9.1917   10.1471 N   0  0  0  0  0  0  0  0  0  0  0  0
   -8.4564   10.5032    9.8309 C   0  0  0  0  0  0  0  0  0  0  0  0
   -8.3214   11.5351   10.8016 C   0  0  0  0  0  0  0  0  0  0  0  0
   -8.3354   11.0802   12.1195 C   0  0  0  0  0  0  0  0  0  0  0  0
   -8.4018    9.7818   12.4196 N   0  0  0  0  0  0  0  0  0  0  0  0
   -8.9819    7.5625   12.8646 H   0  0  0  0  0  0  0  0  0  0  0  0
   -9.1871    7.0059   11.2689 H   0  0  0  0  0  0  0  0  0  0  0  0
   -6.4898   14.6297   13.3677 C   0  0  0  0  0  0  0  0  0  0  0  0
   -5.3070   14.1353   14.1887 C   0  0  0  0  0  0  0  0  0  0  0  0
   -4.7993   12.8475   13.9496 C   0  0  0  0  0  0  0  0  0  0  0  0
   -3.6490   12.3893   14.6088 C   0  0  0  0  0  0  0  0  0  0  0  0
   -2.9909   13.2111   15.5434 C   0  0  0  0  0  0  0  0  0  0  0  0
   -3.5038   14.5012   15.8101 C   0  0  0  0  0  0  0  0  0  0  0  0
   -4.6519   14.9653   15.1268 C   0  0  0  0  0  0  0  0  0  0  0  0
   -1.7034   12.7293   16.1453 C   0  0  0  0  0  0  0  0  0  0  0  0
   -0.6705   12.9369   15.5058 O   0  0  0  0  0  0  0  0  0  0  0  0
   -1.7171   12.0473   17.3184 N   0  0  0  0  0  0  0  0  0  0  0  0
   -2.8939   11.7533   18.1430 C   0  0  0  0  0  0  0  0  0  0  0  0
   -2.7032   12.3439   19.5521 C   0  0  0  0  0  0  0  0  0  0  0  0
   -1.4054   11.8310   20.2027 C   0  0  0  0  0  0  0  0  0  0  0  0
   -0.1999   11.9933   19.2599 C   0  0  0  0  0  0  0  0  0  0  0  0
   -0.5112   11.4149   17.8688 C   0  0  0  0  0  0  0  0  0  0  0  0
  9  8  1  0
 10  9  2  0
 11 10  1  0
 12 11  2  0
  2 12  1  0
  3  2  2  0
  4  3  1  0
  5  4  2  0
  6  5  1  0
  7  2  1  0
  7  6  2  0
  1  7  1  0
 17  1  1  0
 18 17  1  0
 19 18  1  0
 20 19  2  0
 21 20  1  0
 24 21  1  0
 25 24  2  0
 26 24  1  0
 27 26  1  0
 28 27  1  0
 29 28  1  0
 30 29  1  0
 31 26  1  0
 31 30  1  0
 22 21  2  0
 23 18  2  0
 23 22  1  0
 13 12  1  0
 14  9  1  0
 14 13  2  0
 15  8  1  0
 16  8  1  0
M  END
> <ID>
compound_35

> <series>
3

> <pKi>
9.9084

> <FEP_pKi>
8.4384

> <smiles>
Nc1ncc(-c2ccccc2OCc2ccc(C(=O)N3CCCCC3)cc2)cn1

> <minimizedAffinity>
-12.96065

> <minimizedRMSD>
0.35372

$$$$
compound_27


 28 31  0  0  0  0  0  0  0  0999 V2000
   -2.9103   13.1568   15.5961 C   0  0  0  0  0  0  0  0  0  0  0  0
   -3.4033   14.4576   15.8417 C   0  0  0  0  0  0  0  0  0  0  0  0
   -4.5471   14.9147   15.1559 C   0  0  0  0  0  0  0  0  0  0  0  0
   -5.1985   14.0758   14.2268 C   0  0  0  0  0  0  0  0  0  0  0  0
   -4.7024   12.7826   13.9911 C   0  0  0  0  0  0  0  0  0  0  0  0
   -3.5717   12.3195   14.6772 C   0  0  0  0  0  0  0  0  0  0  0  0
   -0.5959   12.8853   15.5840 O   0  0  0  0  0  0  0  0  0  0  0  0
   -1.6360   12.6811   16.2141 C   0  0  0  0  0  0  0  0  0  0  0  0
   -1.6798   12.0118   17.3922 N   0  0  0  0  0  0  0  0  0  0  0  0
   -2.8790   11.7539   18.2006 C   0  0  0  0  0  0  0  0  0  0  0  0
   -2.6995   12.3575   19.6050 C   0  0  0  0  0  0  0  0  0  0  0  0
   -1.4210   11.8278   20.2820 C   0  0  0  0  0  0  0  0  0  0  0  0
   -0.1965   11.9547   19.3590 C   0  0  0  0  0  0  0  0  0  0  0  0
   -0.4919   11.3702   17.9671 C   0  0  0  0  0  0  0  0  0  0  0  0
   -6.3663   14.5837   13.4083 C   0  0  0  0  0  0  0  0  0  0  0  0
   -6.9908   13.5518   12.6372 O   0  0  0  0  0  0  0  0  0  0  0  0
   -7.6943   13.9006   11.4957 C   0  0  0  0  0  0  0  0  0  0  0  0
   -7.8551   15.2650   11.1247 C   0  0  0  0  0  0  0  0  0  0  0  0
   -8.5017   15.6338    9.9362 C   0  0  0  0  0  0  0  0  0  0  0  0
   -9.0137   14.6447    9.0953 C   0  0  0  0  0  0  0  0  0  0  0  0
   -8.9227   13.3017    9.4777 C   0  0  0  0  0  0  0  0  0  0  0  0
   -8.2641   12.8845   10.6596 C   0  0  0  0  0  0  0  0  0  0  0  0
   -8.2772   11.4162   10.9258 C   0  0  0  0  0  0  0  0  0  0  0  0
   -8.2460   10.4701    9.8683 C   0  0  0  0  0  0  0  0  0  0  0  0
   -8.4133    9.0993   10.1251 C   0  0  0  0  0  0  0  0  0  0  0  0
   -8.5999    8.5912   11.3483 N   0  0  0  0  0  0  0  0  0  0  0  0
   -8.6342    9.4671   12.3612 C   0  0  0  0  0  0  0  0  0  0  0  0
   -8.4423   10.8618   12.2095 C   0  0  0  0  0  0  0  0  0  0  0  0
  8  7  2  0
  1  8  1  0
  2  1  1  0
  3  2  2  0
  4  3  1  0
 15  4  1  0
 16 15  1  0
 17 16  1  0
 18 17  2  0
 19 18  1  0
 20 19  2  0
 21 20  1  0
 22 17  1  0
 22 21  2  0
 23 22  1  0
 24 23  2  0
 25 24  1  0
 26 25  2  0
 27 26  1  0
 28 23  1  0
 28 27  2  0
  5  4  2  0
  6  1  2  0
  6  5  1  0
  9  8  1  0
 10  9  1  0
 11 10  1  0
 12 11  1  0
 13 12  1  0
 14  9  1  0
 14 13  1  0
M  END
> <ID>
compound_27

> <series>
3

> <pKi>
9.9336

> <FEP_pKi>
9.2375

> <smiles>
O=C(c1ccc(COc2ccccc2-c2ccncc2)cc1)N1CCCCC1

> <minimizedAffinity>
-12.19889

> <minimizedRMSD>
0.30082

$$$$
compound_30


 30 33  0  0  0  0  0  0  0  0999 V2000
   -7.0062   14.1340   12.6916 O   0  0  0  0  0  0  0  0  0  0  0  0
   -8.3417   13.9168   10.6647 C   0  0  0  0  0  0  0  0  0  0  0  0
   -8.9543   14.5482    9.5587 C   0  0  0  0  0  0  0  0  0  0  0  0
   -8.9897   15.9352    9.4252 C   0  0  0  0  0  0  0  0  0  0  0  0
   -8.4608   16.7271   10.4451 C   0  0  0  0  0  0  0  0  0  0  0  0
   -7.8248   16.1371   11.5471 C   0  0  0  0  0  0  0  0  0  0  0  0
   -7.7138   14.7275   11.6588 C   0  0  0  0  0  0  0  0  0  0  0  0
   -8.6153    9.6929   10.8207 C   0  0  0  0  0  0  0  0  0  0  0  0
   -9.0346   10.3299    9.6528 C   0  0  0  0  0  0  0  0  0  0  0  0
   -8.9319   11.7213    9.5916 C   0  0  0  0  0  0  0  0  0  0  0  0
   -8.4242   12.4473   10.6959 C   0  0  0  0  0  0  0  0  0  0  0  0
   -8.0861   11.7000   11.8387 C   0  0  0  0  0  0  0  0  0  0  0  0
   -8.1572   10.3583   11.9014 N   0  0  0  0  0  0  0  0  0  0  0  0
   -8.3331    7.7427   12.0707 C   0  0  0  0  0  0  0  0  0  0  0  0
   -8.5487    8.3345   10.8225 O   0  0  0  0  0  0  0  0  0  0  0  0
   -6.4945   14.9694   13.7339 C   0  0  0  0  0  0  0  0  0  0  0  0
   -5.3007   14.3699   14.4503 C   0  0  0  0  0  0  0  0  0  0  0  0
   -4.6048   15.1069   15.4333 C   0  0  0  0  0  0  0  0  0  0  0  0
   -3.4415   14.5778   16.0295 C   0  0  0  0  0  0  0  0  0  0  0  0
   -2.9647   13.3064   15.6379 C   0  0  0  0  0  0  0  0  0  0  0  0
   -3.6545   12.5815   14.6452 C   0  0  0  0  0  0  0  0  0  0  0  0
   -4.8182   13.1066   14.0621 C   0  0  0  0  0  0  0  0  0  0  0  0
   -1.6848   12.7483   16.1802 C   0  0  0  0  0  0  0  0  0  0  0  0
   -0.6667   12.9159   15.5091 O   0  0  0  0  0  0  0  0  0  0  0  0
   -1.6987   12.0363   17.3336 N   0  0  0  0  0  0  0  0  0  0  0  0
   -0.5210   11.2980   17.8098 C   0  0  0  0  0  0  0  0  0  0  0  0
   -0.0935   11.8333   19.1881 C   0  0  0  0  0  0  0  0  0  0  0  0
   -1.2603   11.7759   20.1918 C   0  0  0  0  0  0  0  0  0  0  0  0
   -2.5419   12.4041   19.6117 C   0  0  0  0  0  0  0  0  0  0  0  0
   -2.8535   11.8326   18.2164 C   0  0  0  0  0  0  0  0  0  0  0  0
 15 14  1  0
  8 15  1  0
  9  8  2  0
 10  9  1  0
 11 10  2  0
  2 11  1  0
  3  2  2  0
  4  3  1  0
  5  4  2  0
  6  5  1  0
  7  2  1  0
  7  6  2  0
  1  7  1  0
 16  1  1  0
 17 16  1  0
 18 17  1  0
 19 18  2  0
 20 19  1  0
 23 20  1  0
 24 23  2  0
 25 23  1  0
 26 25  1  0
 27 26  1  0
 28 27  1  0
 29 28  1  0
 30 25  1  0
 30 29  1  0
 21 20  2  0
 22 17  2  0
 22 21  1  0
 12 11  1  0
 13  8  1  0
 13 12  2  0
M  END
> <ID>
compound_30

> <series>
3

> <pKi>
7.8612

> <FEP_pKi>
8.1158

> <smiles>
COc1ccc(-c2ccccc2OCc2ccc(C(=O)N3CCCCC3)cc2)cn1

> <minimizedAffinity>
-10.96215

> <minimizedRMSD>
0.36588

$$$$
compound_28


 30 33  0  0  0  0  0  0  0  0999 V2000
   -6.9416   13.8391   12.6435 O   0  0  0  0  0  0  0  0  0  0  0  0
   -8.2563   13.4588   10.6405 C   0  0  0  0  0  0  0  0  0  0  0  0
   -8.9060   14.0150    9.5081 C   0  0  0  0  0  0  0  0  0  0  0  0
   -8.9559   15.3860    9.2699 C   0  0  0  0  0  0  0  0  0  0  0  0
   -8.4277   16.2532   10.2220 C   0  0  0  0  0  0  0  0  0  0  0  0
   -7.7744   15.7483   11.3573 C   0  0  0  0  0  0  0  0  0  0  0  0
   -7.6435   14.3510   11.5696 C   0  0  0  0  0  0  0  0  0  0  0  0
   -9.2734    9.9259    9.9211 C   0  0  0  0  0  0  0  0  0  0  0  0
   -8.8055   11.2208    9.6936 C   0  0  0  0  0  0  0  0  0  0  0  0
   -8.3323   11.9864   10.7770 C   0  0  0  0  0  0  0  0  0  0  0  0
   -8.1363   11.2808   11.9819 C   0  0  0  0  0  0  0  0  0  0  0  0
   -8.4548    9.9042   12.0442 C   0  0  0  0  0  0  0  0  0  0  0  0
   -9.0353    9.2316   11.0411 N   0  0  0  0  0  0  0  0  0  0  0  0
  -11.1174   10.2601    8.5010 C   0  0  0  0  0  0  0  0  0  0  0  0
  -10.1657    9.3621    9.0696 O   0  0  0  0  0  0  0  0  0  0  0  0
   -6.4960   14.7324   13.6636 C   0  0  0  0  0  0  0  0  0  0  0  0
   -5.2723   14.2084   14.3808 C   0  0  0  0  0  0  0  0  0  0  0  0
   -4.7654   12.9426   14.0358 C   0  0  0  0  0  0  0  0  0  0  0  0
   -3.5894   12.4674   14.6306 C   0  0  0  0  0  0  0  0  0  0  0  0
   -2.9182   13.2394   15.5977 C   0  0  0  0  0  0  0  0  0  0  0  0
   -3.4097   14.5207   15.9342 C   0  0  0  0  0  0  0  0  0  0  0  0
   -4.5843   15.0041   15.3224 C   0  0  0  0  0  0  0  0  0  0  0  0
   -1.6469   12.7052   16.1756 C   0  0  0  0  0  0  0  0  0  0  0  0
   -0.6170   12.8826   15.5225 O   0  0  0  0  0  0  0  0  0  0  0  0
   -1.6847   12.0006   17.3339 N   0  0  0  0  0  0  0  0  0  0  0  0
   -0.5021   11.3158   17.8730 C   0  0  0  0  0  0  0  0  0  0  0  0
   -0.1443   11.9119   19.2461 C   0  0  0  0  0  0  0  0  0  0  0  0
   -1.3445   11.8362   20.2090 C   0  0  0  0  0  0  0  0  0  0  0  0
   -2.6310   12.3857   19.5633 C   0  0  0  0  0  0  0  0  0  0  0  0
   -2.8654   11.7599   18.1756 C   0  0  0  0  0  0  0  0  0  0  0  0
 15 14  1  0
  8 15  1  0
  9  8  2  0
 10  9  1  0
  2 10  1  0
  3  2  2  0
  4  3  1  0
  5  4  2  0
  6  5  1  0
  7  2  1  0
  7  6  2  0
  1  7  1  0
 16  1  1  0
 17 16  1  0
 18 17  1  0
 19 18  2  0
 20 19  1  0
 23 20  1  0
 24 23  2  0
 25 23  1  0
 26 25  1  0
 27 26  1  0
 28 27  1  0
 29 28  1  0
 30 25  1  0
 30 29  1  0
 21 20  2  0
 22 17  2  0
 22 21  1  0
 11 10  2  0
 12 11  1  0
 13  8  1  0
 13 12  2  0
M  END
> <ID>
compound_28

> <series>
3

> <pKi>
9.0474

> <FEP_pKi>
9.2229

> <smiles>
COc1cc(-c2ccccc2OCc2ccc(C(=O)N3CCCCC3)cc2)ccn1

> <minimizedAffinity>
-12.04629

> <minimizedRMSD>
0.29735

$$$$
compound_37


 27 30  0  0  0  0  0  0  0  0999 V2000
   -2.9243   13.2319   15.3244 C   0  0  0  0  0  0  0  0  0  0  0  0
   -3.5215   14.4628   15.6819 C   0  0  0  0  0  0  0  0  0  0  0  0
   -4.7094   14.8824   15.0518 C   0  0  0  0  0  0  0  0  0  0  0  0
   -5.3076   14.0652   14.0712 C   0  0  0  0  0  0  0  0  0  0  0  0
   -4.6810   12.8666   13.6760 C   0  0  0  0  0  0  0  0  0  0  0  0
   -3.4986   12.4479   14.3043 C   0  0  0  0  0  0  0  0  0  0  0  0
   -0.5924   13.0059   15.4053 O   0  0  0  0  0  0  0  0  0  0  0  0
   -1.6596   12.7619   15.9751 C   0  0  0  0  0  0  0  0  0  0  0  0
   -1.7465   12.0597   17.1331 N   0  0  0  0  0  0  0  0  0  0  0  0
   -2.9820   11.6789   17.8307 C   0  0  0  0  0  0  0  0  0  0  0  0
   -3.0038   12.3321   19.2261 C   0  0  0  0  0  0  0  0  0  0  0  0
   -1.7384   11.9778   20.0330 C   0  0  0  0  0  0  0  0  0  0  0  0
   -0.4523   12.1841   19.2111 C   0  0  0  0  0  0  0  0  0  0  0  0
   -0.5691   11.5258   17.8249 C   0  0  0  0  0  0  0  0  0  0  0  0
   -6.5701   14.4869   13.3652 C   0  0  0  0  0  0  0  0  0  0  0  0
   -7.1108   13.4440   12.5556 O   0  0  0  0  0  0  0  0  0  0  0  0
   -7.7574   13.7546   11.3706 C   0  0  0  0  0  0  0  0  0  0  0  0
   -7.7964   15.1223   11.0100 C   0  0  0  0  0  0  0  0  0  0  0  0
   -8.4611   15.5491    9.8453 C   0  0  0  0  0  0  0  0  0  0  0  0
   -9.0764   14.6103    9.0033 C   0  0  0  0  0  0  0  0  0  0  0  0
   -9.0125   13.2467    9.3267 C   0  0  0  0  0  0  0  0  0  0  0  0
   -8.3660   12.8070   10.5015 C   0  0  0  0  0  0  0  0  0  0  0  0
   -8.3499   11.3842   10.7697 C   0  0  0  0  0  0  0  0  0  0  0  0
   -8.1827   10.2849    9.9347 C   0  0  0  0  0  0  0  0  0  0  0  0
   -8.4709    9.0767   10.6358 C   0  0  0  0  0  0  0  0  0  0  0  0
   -8.5628    9.1661   11.9587 N   0  0  0  0  0  0  0  0  0  0  0  0
   -8.4492   10.7846   12.4032 S   0  0  0  0  0  0  0  0  0  0  0  0
  8  7  2  0
  1  8  1  0
  2  1  1  0
  3  2  2  0
  4  3  1  0
 15  4  1  0
 16 15  1  0
 17 16  1  0
 18 17  2  0
 19 18  1  0
 20 19  2  0
 21 20  1  0
 22 17  1  0
 22 21  2  0
 23 22  1  0
 24 23  2  0
 25 24  1  0
 26 25  2  0
 27 23  1  0
 27 26  1  0
  5  4  2  0
  6  1  2  0
  6  5  1  0
  9  8  1  0
 10  9  1  0
 11 10  1  0
 12 11  1  0
 13 12  1  0
 14  9  1  0
 14 13  1  0
M  END
> <ID>
compound_37

> <series>
3

> <pKi>
9.1901

> <FEP_pKi>
9.1202

> <smiles>
O=C(c1ccc(COc2ccccc2-c2ccns2)cc1)N1CCCCC1

> <minimizedAffinity>
-11.03624

> <minimizedRMSD>
0.68374

$$$$
compound_29


 34 38  0  0  0  0  0  0  0  0999 V2000
   -7.7304   16.8817   14.1373 C   0  0  0  0  0  0  0  0  0  0  0  0
   -8.2282   18.1814   14.3969 C   0  0  0  0  0  0  0  0  0  0  0  0
   -8.8715   18.9164   13.3847 C   0  0  0  0  0  0  0  0  0  0  0  0
   -9.0272   18.3753   12.0996 C   0  0  0  0  0  0  0  0  0  0  0  0
   -8.5583   17.0777   11.8345 C   0  0  0  0  0  0  0  0  0  0  0  0
   -7.9272   16.3328   12.8490 C   0  0  0  0  0  0  0  0  0  0  0  0
   -7.4205   14.9525   12.5521 C   0  0  0  0  0  0  0  0  0  0  0  0
   -6.0731   14.6384   12.7283 C   0  0  0  0  0  0  0  0  0  0  0  0
   -5.6251   13.3490   12.4458 C   0  0  0  0  0  0  0  0  0  0  0  0
   -6.4592   12.3758   12.0007 N   0  0  0  0  0  0  0  0  0  0  0  0
   -7.7692   12.6952   11.8336 C   0  0  0  0  0  0  0  0  0  0  0  0
   -8.2879   13.9625   12.0956 C   0  0  0  0  0  0  0  0  0  0  0  0
   -8.6474   11.6321   11.3540 N   0  0  0  0  0  0  0  0  0  0  0  0
   -8.8167   11.7397    9.9004 C   0  0  0  0  0  0  0  0  0  0  0  0
   -9.6653   10.5713    9.3394 C   0  0  0  0  0  0  0  0  0  0  0  0
   -9.1191    9.3034    9.7198 O   0  0  0  0  0  0  0  0  0  0  0  0
   -8.9439    9.1655   11.1344 C   0  0  0  0  0  0  0  0  0  0  0  0
   -8.0895   10.3225   11.7100 C   0  0  0  0  0  0  0  0  0  0  0  0
   -7.0659   16.1029   15.0630 O   0  0  0  0  0  0  0  0  0  0  0  0
   -6.0293   16.6795   15.8608 C   0  0  0  0  0  0  0  0  0  0  0  0
   -2.7472   13.8988   16.4490 C   0  0  0  0  0  0  0  0  0  0  0  0
   -3.0585   14.3882   15.1639 C   0  0  0  0  0  0  0  0  0  0  0  0
   -4.1274   15.2799   14.9880 C   0  0  0  0  0  0  0  0  0  0  0  0
   -4.9008   15.6914   16.0922 C   0  0  0  0  0  0  0  0  0  0  0  0
   -4.5732   15.2324   17.3864 C   0  0  0  0  0  0  0  0  0  0  0  0
   -3.4986   14.3395   17.5645 C   0  0  0  0  0  0  0  0  0  0  0  0
   -0.7410   12.9258   15.7100 O   0  0  0  0  0  0  0  0  0  0  0  0
   -1.5916   12.9543   16.6054 C   0  0  0  0  0  0  0  0  0  0  0  0
   -1.5588   12.1522   17.6988 N   0  0  0  0  0  0  0  0  0  0  0  0
   -2.5671   12.0847   18.7722 C   0  0  0  0  0  0  0  0  0  0  0  0
   -1.9209   12.4943   20.1083 C   0  0  0  0  0  0  0  0  0  0  0  0
   -0.6803   11.6372   20.4174 C   0  0  0  0  0  0  0  0  0  0  0  0
    0.2763   11.5409   19.2093 C   0  0  0  0  0  0  0  0  0  0  0  0
   -0.4893   11.1711   17.9280 C   0  0  0  0  0  0  0  0  0  0  0  0
 28 27  2  0
 21 28  1  0
 22 21  1  0
 23 22  2  0
 24 23  1  0
 20 24  1  0
 19 20  1  0
  1 19  1  0
  2  1  2  0
  3  2  1  0
  4  3  2  0
  5  4  1  0
  6  1  1  0
  6  5  2  0
  7  6  1  0
  8  7  2  0
  9  8  1  0
 10  9  2  0
 11 10  1  0
 13 11  1  0
 14 13  1  0
 15 14  1  0
 16 15  1  0
 17 16  1  0
 18 13  1  0
 18 17  1  0
 12  7  1  0
 12 11  2  0
 25 24  2  0
 26 21  2  0
 26 25  1  0
 29 28  1  0
 30 29  1  0
 31 30  1  0
 32 31  1  0
 33 32  1  0
 34 29  1  0
 34 33  1  0
M  END
> <ID>
compound_29

> <series>
3

> <pKi>
7.9565

> <FEP_pKi>
8.0205

> <smiles>
O=C(c1ccc(COc2ccccc2-c2ccnc(N3CCOCC3)c2)cc1)N1CCCCC1

> <minimizedAffinity>
-8.92133

> <minimizedRMSD>
3.00025

$$$$
compound_14


 30 34  0  0  0  0  0  0  0  0999 V2000
   -5.0343   14.4550   14.1665 C   0  0  0  0  0  0  0  0  0  0  0  0
   -4.3621   15.1044   15.2389 C   0  0  0  0  0  0  0  0  0  0  0  0
   -3.2277   14.5453   15.8497 C   0  0  0  0  0  0  0  0  0  0  0  0
   -2.7351   13.3015   15.4152 C   0  0  0  0  0  0  0  0  0  0  0  0
   -3.3348   12.6696   14.3111 C   0  0  0  0  0  0  0  0  0  0  0  0
   -4.4579   13.2448   13.6925 C   0  0  0  0  0  0  0  0  0  0  0  0
   -1.5309   12.6929   16.0530 C   0  0  0  0  0  0  0  0  0  0  0  0
   -0.4583   12.8290   15.4693 O   0  0  0  0  0  0  0  0  0  0  0  0
   -1.6743   12.0058   17.2133 N   0  0  0  0  0  0  0  0  0  0  0  0
   -2.9392   11.7639   17.9222 C   0  0  0  0  0  0  0  0  0  0  0  0
   -2.8706   12.4205   19.3089 C   0  0  0  0  0  0  0  0  0  0  0  0
   -1.6605   11.8881   20.0981 C   0  0  0  0  0  0  0  0  0  0  0  0
   -1.5272   12.5902   21.2232 F   0  0  0  0  0  0  0  0  0  0  0  0
   -1.8935   10.6131   20.4200 F   0  0  0  0  0  0  0  0  0  0  0  0
   -0.3571   11.9640   19.2844 C   0  0  0  0  0  0  0  0  0  0  0  0
   -0.5375   11.3567   17.8823 C   0  0  0  0  0  0  0  0  0  0  0  0
   -6.2960   15.1171   13.5925 C   0  0  0  0  0  0  0  0  0  0  0  0
   -7.2854   15.7334   14.5654 C   0  0  0  0  0  0  0  0  0  0  0  0
   -6.4342   16.6399   13.7219 C   0  0  0  0  0  0  0  0  0  0  0  0
   -9.9132   13.8198    7.3828 C   0  0  0  0  0  0  0  0  0  0  0  0
   -9.2764   13.7730    8.6943 N   0  0  0  0  0  0  0  0  0  0  0  0
   -8.7179   14.8954    9.2275 N   0  0  0  0  0  0  0  0  0  0  0  0
   -8.2087   14.4694   10.3365 C   0  0  0  0  0  0  0  0  0  0  0  0
   -7.4128   15.0952   11.3723 C   0  0  0  0  0  0  0  0  0  0  0  0
   -6.9518   14.3981   12.4463 C   0  0  0  0  0  0  0  0  0  0  0  0
   -7.2725   12.9760   12.5588 C   0  0  0  0  0  0  0  0  0  0  0  0
   -8.0131   12.3745   11.6112 C   0  0  0  0  0  0  0  0  0  0  0  0
   -8.4623   13.1220   10.5185 N   0  0  0  0  0  0  0  0  0  0  0  0
   -9.1082   12.6832    9.4484 C   0  0  0  0  0  0  0  0  0  0  0  0
   -9.4675   11.5322    9.2007 O   0  0  0  0  0  0  0  0  0  0  0  0
 21 20  1  0
 22 21  1  0
 23 22  2  0
 24 23  1  0
 25 24  2  0
 26 25  1  0
 27 26  2  0
 28 23  1  0
 28 27  1  0
 29 21  1  0
 29 28  1  0
 30 29  2  0
 17 25  1  0
 18 17  1  0
 19 17  1  0
 19 18  1  0
  1 17  1  0
  2  1  1  0
  3  2  2  0
  4  3  1  0
  5  4  2  0
  6  1  2  0
  6  5  1  0
  7  4  1  0
  8  7  2  0
  9  7  1  0
 10  9  1  0
 11 10  1  0
 12 11  1  0
 13 12  1  0
 14 12  1  0
 15 12  1  0
 16  9  1  0
 16 15  1  0
M  END
> <ID>
compound_14

> <series>
1

> <pKi>
9.5000

> <FEP_pKi>
7.6000

> <smiles>
Cn1nc2cc(C3(c4ccc(C(=O)N5CCC(F)(F)CC5)cc4)CC3)ccn2c1=O

> <minimizedAffinity>
-13.77750

> <minimizedRMSD>
0.29253

$$$$
compound_47


 31 37  0  0  0  0  0  0  0  0999 V2000
   -6.7504   15.0030   13.3209 N   0  0  0  0  0  0  0  0  0  0  0  0
   -7.5177   16.0090   14.0582 C   0  0  0  0  0  0  0  0  0  0  0  0
   -6.5907   17.0496   14.7258 C   0  0  0  0  0  0  0  0  0  0  0  0
   -5.7432   16.3879   15.6515 O   0  0  0  0  0  0  0  0  0  0  0  0
   -5.1370   15.2684   15.1496 C   0  0  0  0  0  0  0  0  0  0  0  0
   -4.0314   14.7712   15.8678 C   0  0  0  0  0  0  0  0  0  0  0  0
   -3.3749   13.6252   15.3811 C   0  0  0  0  0  0  0  0  0  0  0  0
   -3.7598   12.9945   14.1894 C   0  0  0  0  0  0  0  0  0  0  0  0
   -4.8511   13.4981   13.4850 C   0  0  0  0  0  0  0  0  0  0  0  0
   -5.5731   14.6025   13.9877 C   0  0  0  0  0  0  0  0  0  0  0  0
  -10.3008   13.4807    7.3149 C   0  0  0  0  0  0  0  0  0  0  0  0
   -9.5156   13.4373    8.5505 N   0  0  0  0  0  0  0  0  0  0  0  0
   -8.9897   14.5817    9.0472 N   0  0  0  0  0  0  0  0  0  0  0  0
   -8.4481   14.1924   10.1553 C   0  0  0  0  0  0  0  0  0  0  0  0
   -7.7539   14.9156   11.1888 C   0  0  0  0  0  0  0  0  0  0  0  0
   -7.3486   14.2752   12.3108 C   0  0  0  0  0  0  0  0  0  0  0  0
   -7.5462   12.8207   12.4242 C   0  0  0  0  0  0  0  0  0  0  0  0
   -8.1513   12.1393   11.4562 C   0  0  0  0  0  0  0  0  0  0  0  0
   -8.6097   12.8249   10.3285 N   0  0  0  0  0  0  0  0  0  0  0  0
   -9.2896   12.3500    9.2991 C   0  0  0  0  0  0  0  0  0  0  0  0
   -9.6347   11.1925    9.0697 O   0  0  0  0  0  0  0  0  0  0  0  0
   -2.2763   13.0513   16.0964 C   0  0  0  0  0  0  0  0  0  0  0  0
   -1.1205   12.8682   15.4552 N   0  0  0  0  0  0  0  0  0  0  0  0
   -0.3761   12.1168   16.3006 N   0  0  0  0  0  0  0  0  0  0  0  0
   -1.0527   12.0345   17.4102 C   0  0  0  0  0  0  0  0  0  0  0  0
   -0.7671   11.4675   18.7237 C   0  0  0  0  0  0  0  0  0  0  0  0
   -1.9933   11.8562   19.5358 C   0  0  0  0  0  0  0  0  0  0  0  0
   -3.0225   12.4792   18.5615 C   0  0  0  0  0  0  0  0  0  0  0  0
   -2.2457   12.5847   17.3566 N   0  0  0  0  0  0  0  0  0  0  0  0
   -2.4033   11.0118   20.7011 C   0  0  0  0  0  0  0  0  0  0  0  0
   -1.8328   12.3901   20.9374 C   0  0  0  0  0  0  0  0  0  0  0  0
 12 11  1  0
 13 12  1  0
 14 13  2  0
 15 14  1  0
 16 15  2  0
 17 16  1  0
 18 17  2  0
 19 14  1  0
 19 18  1  0
 20 12  1  0
 20 19  1  0
 21 20  2  0
  1 16  1  0
  2  1  1  0
  3  2  1  0
  4  3  1  0
  5  4  1  0
  6  5  1  0
  7  6  2  0
  8  7  1  0
  9  8  2  0
 10  1  1  0
 10  5  2  0
 10  9  1  0
 22  7  1  0
 23 22  2  0
 24 23  1  0
 25 24  2  0
 26 25  1  0
 27 26  1  0
 28 27  1  0
 29 22  1  0
 29 25  1  0
 29 28  1  0
 30 27  1  0
 31 27  1  0
 31 30  1  0
M  END
> <ID>
compound_47

> <series>
4_5

> <pKi>
8.7321

> <FEP_pKi>
8.8069

> <smiles>
Cn1nc2cc(N3CCOc4cc(-c5nnc6n5CC5(CC5)C6)ccc43)ccn2c1=O

> <minimizedAffinity>
-13.08703

> <minimizedRMSD>
0.54507

$$$$
compound_38


 27 30  0  0  0  0  0  0  0  0999 V2000
   -2.9377   13.2302   15.3964 C   0  0  0  0  0  0  0  0  0  0  0  0
   -3.4735   14.4974   15.7251 C   0  0  0  0  0  0  0  0  0  0  0  0
   -4.6557   14.9493   15.1030 C   0  0  0  0  0  0  0  0  0  0  0  0
   -5.3049   14.1431   14.1423 C   0  0  0  0  0  0  0  0  0  0  0  0
   -4.7497   12.8947   13.7965 C   0  0  0  0  0  0  0  0  0  0  0  0
   -3.5734   12.4400   14.4170 C   0  0  0  0  0  0  0  0  0  0  0  0
   -0.6095   12.9746   15.4284 O   0  0  0  0  0  0  0  0  0  0  0  0
   -1.6681   12.7397   16.0215 C   0  0  0  0  0  0  0  0  0  0  0  0
   -1.7323   12.0344   17.1794 N   0  0  0  0  0  0  0  0  0  0  0  0
   -2.9521   11.6879   17.9216 C   0  0  0  0  0  0  0  0  0  0  0  0
   -2.9090   12.3556   19.3085 C   0  0  0  0  0  0  0  0  0  0  0  0
   -1.6315   11.9629   20.0768 C   0  0  0  0  0  0  0  0  0  0  0  0
   -0.3657   12.1350   19.2146 C   0  0  0  0  0  0  0  0  0  0  0  0
   -0.5439   11.4741   17.8368 C   0  0  0  0  0  0  0  0  0  0  0  0
   -6.5598   14.6105   13.4380 C   0  0  0  0  0  0  0  0  0  0  0  0
   -7.1009   13.5774   12.6242 O   0  0  0  0  0  0  0  0  0  0  0  0
   -7.7488   13.8739   11.4368 C   0  0  0  0  0  0  0  0  0  0  0  0
   -7.8387   15.1890   10.9216 C   0  0  0  0  0  0  0  0  0  0  0  0
   -8.4543   15.4326    9.6799 C   0  0  0  0  0  0  0  0  0  0  0  0
   -9.0026   14.3678    8.9462 C   0  0  0  0  0  0  0  0  0  0  0  0
   -8.9604   13.0700    9.4743 C   0  0  0  0  0  0  0  0  0  0  0  0
   -8.3406   12.8114   10.6995 C   0  0  0  0  0  0  0  0  0  0  0  0
   -8.3300   11.4061   10.9721 C   0  0  0  0  0  0  0  0  0  0  0  0
   -8.3248   10.2823   10.0764 C   0  0  0  0  0  0  0  0  0  0  0  0
   -8.4941    9.1485   10.7233 N   0  0  0  0  0  0  0  0  0  0  0  0
   -8.5318    9.5285   12.0495 O   0  0  0  0  0  0  0  0  0  0  0  0
   -8.3050   10.8692   12.1790 C   0  0  0  0  0  0  0  0  0  0  0  0
  8  7  2  0
  1  8  1  0
  2  1  1  0
  3  2  2  0
  4  3  1  0
 15  4  1  0
 16 15  1  0
 17 16  1  0
 18 17  2  0
 19 18  1  0
 20 19  2  0
 21 20  1  0
 22 17  1  0
 22 21  2  0
 23 22  1  0
 24 23  1  0
 25 24  2  0
 26 25  1  0
 27 23  2  0
 27 26  1  0
  5  4  2  0
  6  1  2  0
  6  5  1  0
  9  8  1  0
 10  9  1  0
 11 10  1  0
 12 11  1  0
 13 12  1  0
 14  9  1  0
 14 13  1  0
M  END
> <ID>
compound_38

> <series>
3

> <pKi>
10.2452

> <FEP_pKi>
9.2302

> <smiles>
O=C(c1ccc(COc2ccccc2-c2cnoc2)cc1)N1CCCCC1

> <minimizedAffinity>
-11.75721

> <minimizedRMSD>
0.55942

$$$$
compound_31


 34 38  0  0  0  0  0  0  0  0999 V2000
   -7.3224   17.7603   13.9024 C   0  0  0  0  0  0  0  0  0  0  0  0
   -7.5489   19.0371   14.4708 C   0  0  0  0  0  0  0  0  0  0  0  0
   -8.5808   19.8621   13.9878 C   0  0  0  0  0  0  0  0  0  0  0  0
   -9.4005   19.4351   12.9323 C   0  0  0  0  0  0  0  0  0  0  0  0
   -9.2015   18.1611   12.3743 C   0  0  0  0  0  0  0  0  0  0  0  0
   -8.1794   17.3261   12.8648 C   0  0  0  0  0  0  0  0  0  0  0  0
   -8.0371   15.9733   12.2412 C   0  0  0  0  0  0  0  0  0  0  0  0
   -8.2862   15.7618   10.8769 C   0  0  0  0  0  0  0  0  0  0  0  0
   -8.1779   14.4819   10.3286 C   0  0  0  0  0  0  0  0  0  0  0  0
   -7.8230   13.4196   11.1611 C   0  0  0  0  0  0  0  0  0  0  0  0
   -7.5520   13.6012   12.4841 N   0  0  0  0  0  0  0  0  0  0  0  0
   -7.6500   14.8534   12.9919 C   0  0  0  0  0  0  0  0  0  0  0  0
   -7.7656   12.1446   10.6239 O   0  0  0  0  0  0  0  0  0  0  0  0
   -8.8289   11.2155   10.8674 C   0  0  0  0  0  0  0  0  0  0  0  0
   -8.4651   10.1784   11.9540 C   0  0  0  0  0  0  0  0  0  0  0  0
   -8.3585    8.8259   11.2415 C   0  0  0  0  0  0  0  0  0  0  0  0
   -9.2735    8.9635   10.0283 C   0  0  0  0  0  0  0  0  0  0  0  0
   -9.0600   10.4086    9.5759 C   0  0  0  0  0  0  0  0  0  0  0  0
   -6.3190   16.8989   14.2975 O   0  0  0  0  0  0  0  0  0  0  0  0
   -6.1680   16.5739   15.6813 C   0  0  0  0  0  0  0  0  0  0  0  0
   -2.7837   13.9057   16.2092 C   0  0  0  0  0  0  0  0  0  0  0  0
   -3.1517   14.7838   17.2563 C   0  0  0  0  0  0  0  0  0  0  0  0
   -4.2545   15.6463   17.1027 C   0  0  0  0  0  0  0  0  0  0  0  0
   -4.9940   15.6372   15.9002 C   0  0  0  0  0  0  0  0  0  0  0  0
   -4.6024   14.7883   14.8453 C   0  0  0  0  0  0  0  0  0  0  0  0
   -3.5057   13.9267   14.9983 C   0  0  0  0  0  0  0  0  0  0  0  0
   -0.7334   13.0310   15.4682 O   0  0  0  0  0  0  0  0  0  0  0  0
   -1.6094   12.9803   16.3378 C   0  0  0  0  0  0  0  0  0  0  0  0
   -1.5872   12.1084   17.3767 N   0  0  0  0  0  0  0  0  0  0  0  0
   -0.5003   11.1396   17.5730 C   0  0  0  0  0  0  0  0  0  0  0  0
    0.2193   11.4414   18.8980 C   0  0  0  0  0  0  0  0  0  0  0  0
   -0.7732   11.4351   20.0807 C   0  0  0  0  0  0  0  0  0  0  0  0
   -2.0259   12.2816   19.7915 C   0  0  0  0  0  0  0  0  0  0  0  0
   -2.6235   11.9465   18.4128 C   0  0  0  0  0  0  0  0  0  0  0  0
 28 27  2  0
 21 28  1  0
 22 21  1  0
 23 22  2  0
 24 23  1  0
 20 24  1  0
 19 20  1  0
  1 19  1  0
  2  1  2  0
  3  2  1  0
  4  3  2  0
  5  4  1  0
  6  1  1  0
  6  5  2  0
  7  6  1  0
  8  7  2  0
  9  8  1  0
 10  9  2  0
 13 10  1  0
 14 13  1  0
 15 14  1  0
 16 15  1  0
 17 16  1  0
 18 14  1  0
 18 17  1  0
 11 10  1  0
 12  7  1  0
 12 11  2  0
 25 24  2  0
 26 21  2  0
 26 25  1  0
 29 28  1  0
 30 29  1  0
 31 30  1  0
 32 31  1  0
 33 32  1  0
 34 29  1  0
 34 33  1  0
M  END
> <ID>
compound_31

> <series>
3

> <pKi>
5.8021

> <FEP_pKi>
5.4912

> <smiles>
O=C(c1ccc(COc2ccccc2-c2ccc(OC3CCCC3)nc2)cc1)N1CCCCC1

> <minimizedAffinity>
-10.21162

> <minimizedRMSD>
3.83477

$$$$
compound_43


 30 34  0  0  0  0  0  0  0  0999 V2000
   -4.8530   15.1378   15.2660 C   0  0  0  0  0  0  0  0  0  0  0  0
   -3.7347   14.6981   15.9877 C   0  0  0  0  0  0  0  0  0  0  0  0
   -3.1266   13.4796   15.6314 C   0  0  0  0  0  0  0  0  0  0  0  0
   -3.5387   12.8237   14.4585 C   0  0  0  0  0  0  0  0  0  0  0  0
   -4.5560   13.2346   13.6887 N   0  0  0  0  0  0  0  0  0  0  0  0
   -5.2045   14.3401   14.1524 C   0  0  0  0  0  0  0  0  0  0  0  0
   -5.7953   16.2107   15.3664 C   0  0  0  0  0  0  0  0  0  0  0  0
   -6.7042   16.0108   14.3608 C   0  0  0  0  0  0  0  0  0  0  0  0
   -6.3610   14.8783   13.6360 N   0  0  0  0  0  0  0  0  0  0  0  0
   -2.1583   12.8402   16.4885 C   0  0  0  0  0  0  0  0  0  0  0  0
   -0.9939   12.4360   16.0085 N   0  0  0  0  0  0  0  0  0  0  0  0
   -0.3820   11.7706   17.0280 N   0  0  0  0  0  0  0  0  0  0  0  0
   -1.1286   11.9969   18.0932 C   0  0  0  0  0  0  0  0  0  0  0  0
   -0.6430   11.7761   19.4772 C   0  0  0  0  0  0  0  0  0  0  0  0
   -1.5215   10.8825   20.3383 C   0  0  0  0  0  0  0  0  0  0  0  0
   -2.8122   11.5347   20.7612 C   0  0  0  0  0  0  0  0  0  0  0  0
   -3.7859   11.7498   19.6144 C   0  0  0  0  0  0  0  0  0  0  0  0
   -3.3812   12.8929   18.6991 C   0  0  0  0  0  0  0  0  0  0  0  0
   -2.3000   12.5681   17.8031 N   0  0  0  0  0  0  0  0  0  0  0  0
   -7.0682   14.3551   12.5471 C   0  0  0  0  0  0  0  0  0  0  0  0
   -7.5163   15.2186   11.5436 C   0  0  0  0  0  0  0  0  0  0  0  0
   -8.2226   14.7129   10.4525 C   0  0  0  0  0  0  0  0  0  0  0  0
   -8.4899   13.3362   10.3511 C   0  0  0  0  0  0  0  0  0  0  0  0
   -8.0486   12.4687   11.3707 C   0  0  0  0  0  0  0  0  0  0  0  0
   -7.3317   12.9805   12.4621 C   0  0  0  0  0  0  0  0  0  0  0  0
   -9.2351   12.8065    9.1726 C   0  0  0  0  0  0  0  0  0  0  0  0
   -9.5964   11.6360    9.1065 O   0  0  0  0  0  0  0  0  0  0  0  0
   -9.4815   13.7048    8.2169 N   0  0  0  0  0  0  0  0  0  0  0  0
  -10.2594   13.4638    7.0216 C   0  0  0  0  0  0  0  0  0  0  0  0
   -9.1386   14.6392    8.3765 H   0  0  0  0  0  0  0  0  0  0  0  0
  2  1  1  0
  3  2  2  0
  4  3  1  0
  5  4  2  0
  6  1  2  0
  6  5  1  0
 10  3  1  0
 11 10  2  0
 12 11  1  0
 13 12  2  0
 14 13  1  0
 15 14  1  0
 16 15  1  0
 17 16  1  0
 18 17  1  0
 19 10  1  0
 19 13  1  0
 19 18  1  0
  7  1  1  0
  8  7  2  0
  9  6  1  0
  9  8  1  0
 20  9  1  0
 21 20  1  0
 22 21  2  0
 23 22  1  0
 24 23  2  0
 25 20  2  0
 25 24  1  0
 26 23  1  0
 27 26  2  0
 28 26  1  0
 29 28  1  0
 30 28  1  0
M  END
> <ID>
compound_43

> <series>
4_5

> <pKi>
10.0204

> <FEP_pKi>
9.7660

> <smiles>
CNC(=O)c1ccc(-n2ccc3cc(-c4nnc5n4CCCCC5)cnc32)cc1

> <minimizedAffinity>
-12.89781

> <minimizedRMSD>
0.32665

$$$$
compound_48


 31 36  0  0  0  0  0  0  0  0999 V2000
   -6.6278   14.8939   13.4195 N   0  0  0  0  0  0  0  0  0  0  0  0
   -7.3472   15.9651   14.0959 C   0  0  0  0  0  0  0  0  0  0  0  0
   -6.3949   16.9792   14.7151 C   0  0  0  0  0  0  0  0  0  0  0  0
   -5.6118   16.3414   15.7047 O   0  0  0  0  0  0  0  0  0  0  0  0
   -5.0573   15.1540   15.2983 C   0  0  0  0  0  0  0  0  0  0  0  0
   -4.0076   14.6421   16.0699 C   0  0  0  0  0  0  0  0  0  0  0  0
   -3.4321   13.4172   15.7121 C   0  0  0  0  0  0  0  0  0  0  0  0
   -3.8263   12.7553   14.5363 C   0  0  0  0  0  0  0  0  0  0  0  0
   -4.8192   13.3005   13.7347 C   0  0  0  0  0  0  0  0  0  0  0  0
   -5.5096   14.4543   14.1460 C   0  0  0  0  0  0  0  0  0  0  0  0
  -10.2367   13.4641    7.4027 C   0  0  0  0  0  0  0  0  0  0  0  0
   -9.4513   13.4205    8.6248 N   0  0  0  0  0  0  0  0  0  0  0  0
   -8.9211   14.5597    9.1362 N   0  0  0  0  0  0  0  0  0  0  0  0
   -8.3766   14.1587   10.2347 C   0  0  0  0  0  0  0  0  0  0  0  0
   -7.6702   14.8518   11.2911 C   0  0  0  0  0  0  0  0  0  0  0  0
   -7.2285   14.1900   12.3869 C   0  0  0  0  0  0  0  0  0  0  0  0
   -7.4549   12.7521   12.4917 C   0  0  0  0  0  0  0  0  0  0  0  0
   -8.0934   12.0944   11.5133 C   0  0  0  0  0  0  0  0  0  0  0  0
   -8.5461   12.7996   10.4039 N   0  0  0  0  0  0  0  0  0  0  0  0
   -9.2397   12.3381    9.3743 C   0  0  0  0  0  0  0  0  0  0  0  0
   -9.6108   11.1864    9.1530 O   0  0  0  0  0  0  0  0  0  0  0  0
   -2.3073   12.8577   16.3883 C   0  0  0  0  0  0  0  0  0  0  0  0
   -1.1936   12.8493   15.6714 N   0  0  0  0  0  0  0  0  0  0  0  0
   -0.3330   12.1168   16.3744 N   0  0  0  0  0  0  0  0  0  0  0  0
   -0.8895   11.9156   17.5471 C   0  0  0  0  0  0  0  0  0  0  0  0
   -2.1293   12.3031   17.6106 N   0  0  0  0  0  0  0  0  0  0  0  0
   -2.7816   11.9712   18.8461 C   0  0  0  0  0  0  0  0  0  0  0  0
   -1.6097   11.5025   19.7547 C   0  0  0  0  0  0  0  0  0  0  0  0
   -0.3963   11.3647   18.8199 C   0  0  0  0  0  0  0  0  0  0  0  0
   -3.7182   10.8302   18.5895 C   0  0  0  0  0  0  0  0  0  0  0  0
   -3.4962   13.1823   19.3902 C   0  0  0  0  0  0  0  0  0  0  0  0
 12 11  1  0
 13 12  1  0
 14 13  2  0
 15 14  1  0
 16 15  2  0
 17 16  1  0
 18 17  2  0
 19 14  1  0
 19 18  1  0
 20 12  1  0
 20 19  1  0
 21 20  2  0
  1 16  1  0
  2  1  1  0
  3  2  1  0
  4  3  1  0
  5  4  1  0
  6  5  1  0
  7  6  2  0
  8  7  1  0
  9  8  2  0
 10  1  1  0
 10  5  2  0
 10  9  1  0
 22  7  1  0
 23 22  2  0
 24 23  1  0
 25 24  2  0
 26 22  1  0
 26 25  1  0
 27 26  1  0
 28 27  1  0
 29 25  1  0
 29 28  1  0
 30 27  1  0
 31 27  1  0
M  END
> <ID>
compound_48

> <series>
4_5

> <pKi>
7.5051

> <FEP_pKi>
7.8869

> <smiles>
Cn1nc2cc(N3CCOc4cc(-c5nnc6n5C(C)(C)CC6)ccc43)ccn2c1=O

> <minimizedAffinity>
-11.89752

> <minimizedRMSD>
0.54167

$$$$
compound_49


 31 36  0  0  0  0  0  0  0  0999 V2000
   -6.7007   14.9131   13.7272 N   0  0  0  0  0  0  0  0  0  0  0  0
   -7.2884   15.9681   14.5381 C   0  0  0  0  0  0  0  0  0  0  0  0
   -6.2520   17.0047   14.9234 C   0  0  0  0  0  0  0  0  0  0  0  0
   -5.2631   16.3804   15.7061 O   0  0  0  0  0  0  0  0  0  0  0  0
   -4.7846   15.2054   15.1936 C   0  0  0  0  0  0  0  0  0  0  0  0
   -3.6216   14.7104   15.7628 C   0  0  0  0  0  0  0  0  0  0  0  0
   -3.1398   13.4512   15.4043 C   0  0  0  0  0  0  0  0  0  0  0  0
   -3.6956   12.7670   14.3162 C   0  0  0  0  0  0  0  0  0  0  0  0
   -4.8412   13.2928   13.6981 C   0  0  0  0  0  0  0  0  0  0  0  0
   -5.4472   14.4702   14.1869 C   0  0  0  0  0  0  0  0  0  0  0  0
   -9.5447   14.2447    7.2163 C   0  0  0  0  0  0  0  0  0  0  0  0
   -9.1851   14.1057    8.6090 N   0  0  0  0  0  0  0  0  0  0  0  0
   -8.7911   15.1963    9.3161 N   0  0  0  0  0  0  0  0  0  0  0  0
   -8.3441   14.6822   10.4056 C   0  0  0  0  0  0  0  0  0  0  0  0
   -7.7505   15.2549   11.5980 C   0  0  0  0  0  0  0  0  0  0  0  0
   -7.3992   14.4555   12.6330 C   0  0  0  0  0  0  0  0  0  0  0  0
   -7.6228   13.0266   12.5431 C   0  0  0  0  0  0  0  0  0  0  0  0
   -8.1456   12.4867   11.4386 C   0  0  0  0  0  0  0  0  0  0  0  0
   -8.4978   13.3143   10.3962 N   0  0  0  0  0  0  0  0  0  0  0  0
   -9.0287   12.9523    9.2488 C   0  0  0  0  0  0  0  0  0  0  0  0
   -9.2958   11.8219    8.8525 O   0  0  0  0  0  0  0  0  0  0  0  0
   -2.1926   12.8432   16.2912 C   0  0  0  0  0  0  0  0  0  0  0  0
   -0.9794   12.4051   15.9466 N   0  0  0  0  0  0  0  0  0  0  0  0
   -0.4436   11.8421   17.0998 N   0  0  0  0  0  0  0  0  0  0  0  0
   -1.3504   12.1026   18.0298 C   0  0  0  0  0  0  0  0  0  0  0  0
   -2.4503   12.6365   17.5913 N   0  0  0  0  0  0  0  0  0  0  0  0
   -3.5067   12.7778   18.5520 C   0  0  0  0  0  0  0  0  0  0  0  0
   -2.7682   12.5211   19.8713 C   0  0  0  0  0  0  0  0  0  0  0  0
   -1.4789   11.7830   19.4618 C   0  0  0  0  0  0  0  0  0  0  0  0
   -0.2696   12.2092   20.2785 C   0  0  0  0  0  0  0  0  0  0  0  0
   -1.7955   10.3260   19.5649 C   0  0  0  0  0  0  0  0  0  0  0  0
 12 11  1  0
 13 12  1  0
 14 13  2  0
 15 14  1  0
 16 15  2  0
 17 16  1  0
 18 17  2  0
 19 14  1  0
 19 18  1  0
 20 12  1  0
 20 19  1  0
 21 20  2  0
  1 16  1  0
  2  1  1  0
  3  2  1  0
  4  3  1  0
  5  4  1  0
  6  5  1  0
  7  6  2  0
  8  7  1  0
  9  8  2  0
 10  1  1  0
 10  5  2  0
 10  9  1  0
 22  7  1  0
 23 22  2  0
 24 23  1  0
 25 24  2  0
 26 22  1  0
 26 25  1  0
 27 26  1  0
 28 27  1  0
 29 25  1  0
 29 28  1  0
 30 29  1  0
 31 29  1  0
M  END
> <ID>
compound_49

> <series>
4_5

> <pKi>
7.9807

> <FEP_pKi>
8.8949

> <smiles>
Cn1nc2cc(N3CCOc4cc(-c5nnc6n5CCC6(C)C)ccc43)ccn2c1=O

> <minimizedAffinity>
-12.72940

> <minimizedRMSD>
0.58027

$$$$
compound_50


 33 38  0  0  0  0  0  0  0  0999 V2000
   -6.6958   15.0326   13.1941 N   0  0  0  0  0  0  0  0  0  0  0  0
   -6.9688   16.4541   13.4560 C   0  0  0  0  0  0  0  0  0  0  0  0
   -6.9166   16.7601   14.9631 C   0  0  0  0  0  0  0  0  0  0  0  0
   -5.6396   16.4405   15.5080 O   0  0  0  0  0  0  0  0  0  0  0  0
   -5.0512   15.2936   15.0181 C   0  0  0  0  0  0  0  0  0  0  0  0
   -3.9106   14.8034   15.6807 C   0  0  0  0  0  0  0  0  0  0  0  0
   -3.3093   13.6200   15.2141 C   0  0  0  0  0  0  0  0  0  0  0  0
   -3.7376   12.9631   14.0495 C   0  0  0  0  0  0  0  0  0  0  0  0
   -4.8324   13.4753   13.3632 C   0  0  0  0  0  0  0  0  0  0  0  0
   -5.5383   14.5984   13.8665 C   0  0  0  0  0  0  0  0  0  0  0  0
   -2.2287   13.0061   15.9175 C   0  0  0  0  0  0  0  0  0  0  0  0
   -1.0241   12.9973   15.3651 N   0  0  0  0  0  0  0  0  0  0  0  0
   -0.2768   12.2331   16.1704 N   0  0  0  0  0  0  0  0  0  0  0  0
   -1.0537   11.8523   17.1637 C   0  0  0  0  0  0  0  0  0  0  0  0
   -0.5656   11.0537   18.3090 C   0  0  0  0  0  0  0  0  0  0  0  0
   -0.5795   11.8997   19.5827 C   0  0  0  0  0  0  0  0  0  0  0  0
   -3.0183   12.8540   19.3583 C   0  0  0  0  0  0  0  0  0  0  0  0
   -3.3715   12.1905   18.0217 C   0  0  0  0  0  0  0  0  0  0  0  0
   -2.2922   12.3407   17.0871 N   0  0  0  0  0  0  0  0  0  0  0  0
   -1.9817   12.0909   20.2244 C   0  0  0  0  0  0  0  0  0  0  0  0
   -2.6061   10.7455   20.6144 C   0  0  0  0  0  0  0  0  0  0  0  0
   -1.7323   12.8694   21.5262 C   0  0  0  0  0  0  0  0  0  0  0  0
  -10.3679   13.1454    7.3238 C   0  0  0  0  0  0  0  0  0  0  0  0
   -9.5735   13.1831    8.5414 N   0  0  0  0  0  0  0  0  0  0  0  0
   -9.0861   14.3758    8.9949 N   0  0  0  0  0  0  0  0  0  0  0  0
   -8.5208   14.0497   10.1050 C   0  0  0  0  0  0  0  0  0  0  0  0
   -7.8421   14.8341   11.1198 C   0  0  0  0  0  0  0  0  0  0  0  0
   -7.3757   14.2513   12.2551 C   0  0  0  0  0  0  0  0  0  0  0  0
   -7.5275   12.7930   12.4358 C   0  0  0  0  0  0  0  0  0  0  0  0
   -8.1217   12.0460   11.4946 C   0  0  0  0  0  0  0  0  0  0  0  0
   -8.6149   12.6831   10.3441 N   0  0  0  0  0  0  0  0  0  0  0  0
   -9.3014   12.1392    9.3404 C   0  0  0  0  0  0  0  0  0  0  0  0
   -9.6314   10.9573    9.1756 O   0  0  0  0  0  0  0  0  0  0  0  0
 24 23  1  0
 25 24  1  0
 26 25  2  0
 27 26  1  0
 28 27  2  0
 29 28  1  0
 30 29  2  0
 31 26  1  0
 31 30  1  0
 32 24  1  0
 32 31  1  0
 33 32  2  0
  1 28  1  0
  2  1  1  0
  3  2  1  0
  4  3  1  0
  5  4  1  0
  6  5  1  0
  7  6  2  0
  8  7  1  0
  9  8  2  0
 10  1  1  0
 10  5  2  0
 10  9  1  0
 11  7  1  0
 12 11  2  0
 13 12  1  0
 14 13  2  0
 15 14  1  0
 16 15  1  0
 18 17  1  0
 19 11  1  0
 19 14  1  0
 19 18  1  0
 20 16  1  0
 20 17  1  0
 21 20  1  0
 22 20  1  0
M  END
> <ID>
compound_50

> <series>
4_5

> <pKi>
8.3995

> <FEP_pKi>
8.6053

> <smiles>
Cn1nc2cc(N3CCOc4cc(-c5nnc6n5CCC(C)(C)CC6)ccc43)ccn2c1=O

> <minimizedAffinity>
-12.27193

> <minimizedRMSD>
0.63669

$$$$
compound_15


 31 34  0  0  0  0  0  0  0  0999 V2000
   -5.1618   14.4262   14.2367 C   0  0  0  0  0  0  0  0  0  0  0  0
   -4.5097   13.3059   13.6547 C   0  0  0  0  0  0  0  0  0  0  0  0
   -3.3446   12.7758   14.2238 C   0  0  0  0  0  0  0  0  0  0  0  0
   -2.7874   13.3539   15.3690 C   0  0  0  0  0  0  0  0  0  0  0  0
   -3.3486   14.5241   15.9005 C   0  0  0  0  0  0  0  0  0  0  0  0
   -4.5145   15.0396   15.3373 C   0  0  0  0  0  0  0  0  0  0  0  0
   -1.5709   12.7544   15.9731 C   0  0  0  0  0  0  0  0  0  0  0  0
   -0.5174   12.9199   15.3576 O   0  0  0  0  0  0  0  0  0  0  0  0
   -1.6820   12.0103   17.1000 N   0  0  0  0  0  0  0  0  0  0  0  0
   -0.5205   11.3970   17.7565 C   0  0  0  0  0  0  0  0  0  0  0  0
   -0.3555   12.0137   19.1572 C   0  0  0  0  0  0  0  0  0  0  0  0
   -1.6527   11.8739   19.9802 C   0  0  0  0  0  0  0  0  0  0  0  0
   -1.8064   10.5841   20.2753 F   0  0  0  0  0  0  0  0  0  0  0  0
   -1.5507   12.5462   21.1267 F   0  0  0  0  0  0  0  0  0  0  0  0
   -2.9048   12.3270   19.2016 C   0  0  0  0  0  0  0  0  0  0  0  0
   -2.9455   11.7114   17.7930 C   0  0  0  0  0  0  0  0  0  0  0  0
   -6.3820   14.9067   13.6863 N   0  0  0  0  0  0  0  0  0  0  0  0
   -7.0653   14.2498   12.6582 C   0  0  0  0  0  0  0  0  0  0  0  0
   -7.4751   14.9264   11.5577 C   0  0  0  0  0  0  0  0  0  0  0  0
   -8.1898   14.2910   10.4769 C   0  0  0  0  0  0  0  0  0  0  0  0
   -8.6626   14.7302    9.3648 N   0  0  0  0  0  0  0  0  0  0  0  0
   -9.1826   13.6182    8.7933 N   0  0  0  0  0  0  0  0  0  0  0  0
   -9.8401   13.7029    7.4974 C   0  0  0  0  0  0  0  0  0  0  0  0
   -9.0397   12.5213    9.5314 C   0  0  0  0  0  0  0  0  0  0  0  0
   -9.4413   11.3991    9.2466 O   0  0  0  0  0  0  0  0  0  0  0  0
   -8.3942   12.9294   10.6132 N   0  0  0  0  0  0  0  0  0  0  0  0
   -7.9868   12.1866   11.7184 C   0  0  0  0  0  0  0  0  0  0  0  0
   -7.3457   12.8011   12.7246 C   0  0  0  0  0  0  0  0  0  0  0  0
   -6.7570   16.2630   14.1538 C   0  0  0  0  0  0  0  0  0  0  0  0
   -8.2578   16.4933   14.3324 C   0  0  0  0  0  0  0  0  0  0  0  0
   -6.0365   17.3653   13.3695 C   0  0  0  0  0  0  0  0  0  0  0  0
 17 29  1  0
  1 17  1  0
  2  1  1  0
  3  2  2  0
  4  3  1  0
  5  4  2  0
  6  1  2  0
  6  5  1  0
  7  4  1  0
  8  7  2  0
  9  7  1  0
 10  9  1  0
 11 10  1  0
 12 11  1  0
 13 12  1  0
 14 12  1  0
 15 12  1  0
 16  9  1  0
 16 15  1  0
 18 17  1  0
 19 18  2  0
 20 19  1  0
 21 20  2  0
 22 21  1  0
 23 22  1  0
 24 22  1  0
 25 24  2  0
 26 20  1  0
 26 24  1  0
 27 26  1  0
 28 18  1  0
 28 27  2  0
 30 29  1  0
 31 29  1  0
M  END
> <ID>
compound_15

> <series>
1

> <pKi>
9.4000

> <FEP_pKi>
8.9000

> <smiles>
CC(C)N(c1ccc(C(=O)N2CCC(F)(F)CC2)cc1)c1ccn2c(=O)n(C)nc2c1

> <minimizedAffinity>
-12.64548

> <minimizedRMSD>
0.32025

$$$$
compound_16


 32 36  0  0  0  0  0  0  0  0999 V2000
   -6.1434   14.7186   13.5450 N   0  0  0  0  0  0  0  0  0  0  0  0
   -6.4740   14.2572   12.2938 C   0  0  0  0  0  0  0  0  0  0  0  0
   -6.6252   15.1063   11.2374 C   0  0  0  0  0  0  0  0  0  0  0  0
   -7.6389   14.8508   10.2370 C   0  0  0  0  0  0  0  0  0  0  0  0
   -8.0301   15.5101    9.2008 N   0  0  0  0  0  0  0  0  0  0  0  0
   -9.0324   14.7384    8.7092 N   0  0  0  0  0  0  0  0  0  0  0  0
   -9.7181   15.1446    7.4906 C   0  0  0  0  0  0  0  0  0  0  0  0
   -9.2337   13.6100    9.4000 C   0  0  0  0  0  0  0  0  0  0  0  0
  -10.0096   12.6933    9.1288 O   0  0  0  0  0  0  0  0  0  0  0  0
   -8.3664   13.6927   10.4105 N   0  0  0  0  0  0  0  0  0  0  0  0
   -7.9077   12.6724   11.2660 C   0  0  0  0  0  0  0  0  0  0  0  0
   -6.9866   12.9176   12.1901 C   0  0  0  0  0  0  0  0  0  0  0  0
   -4.8917   14.3690   14.1316 C   0  0  0  0  0  0  0  0  0  0  0  0
   -4.5114   14.8783   15.4072 C   0  0  0  0  0  0  0  0  0  0  0  0
   -3.4053   14.3382   16.0748 C   0  0  0  0  0  0  0  0  0  0  0  0
   -2.6775   13.2733   15.5026 C   0  0  0  0  0  0  0  0  0  0  0  0
   -3.0198   12.8199   14.2273 C   0  0  0  0  0  0  0  0  0  0  0  0
   -4.0987   13.3795   13.5507 C   0  0  0  0  0  0  0  0  0  0  0  0
   -1.5126   12.6331   16.1846 C   0  0  0  0  0  0  0  0  0  0  0  0
   -0.4247   12.6969   15.6168 O   0  0  0  0  0  0  0  0  0  0  0  0
   -1.7083   11.9735   17.3509 N   0  0  0  0  0  0  0  0  0  0  0  0
   -3.0046   11.7686   18.0044 C   0  0  0  0  0  0  0  0  0  0  0  0
   -2.9818   12.4644   19.3688 C   0  0  0  0  0  0  0  0  0  0  0  0
   -1.8004   11.9756   20.2170 C   0  0  0  0  0  0  0  0  0  0  0  0
   -2.0464   10.7248   20.5879 F   0  0  0  0  0  0  0  0  0  0  0  0
   -1.6998   12.7186   21.3198 F   0  0  0  0  0  0  0  0  0  0  0  0
   -0.4718   12.0005   19.4488 C   0  0  0  0  0  0  0  0  0  0  0  0
   -0.6156   11.3247   18.0798 C   0  0  0  0  0  0  0  0  0  0  0  0
   -7.2191   15.5916   14.1172 C   0  0  0  0  0  0  0  0  0  0  0  0
   -6.8311   17.0871   14.3052 C   0  0  0  0  0  0  0  0  0  0  0  0
   -8.4459   16.1481   13.4187 C   0  0  0  0  0  0  0  0  0  0  0  0
   -8.3217   17.3935   14.2901 C   0  0  0  0  0  0  0  0  0  0  0  0
  1 29  1  0
 13  1  1  0
 14 13  1  0
 15 14  2  0
 16 15  1  0
 17 16  2  0
 18 13  2  0
 18 17  1  0
 19 16  1  0
 20 19  2  0
 21 19  1  0
 22 21  1  0
 23 22  1  0
 24 23  1  0
 25 24  1  0
 26 24  1  0
 27 24  1  0
 28 21  1  0
 28 27  1  0
  2  1  1  0
  3  2  2  0
  4  3  1  0
  5  4  2  0
  6  5  1  0
  7  6  1  0
  8  6  1  0
  9  8  2  0
 10  4  1  0
 10  8  1  0
 11 10  1  0
 12  2  1  0
 12 11  2  0
 30 29  1  0
 31 29  1  0
 32 30  1  0
 32 31  1  0
M  END
> <ID>
compound_16

> <series>
1

> <pKi>
8.9000

> <FEP_pKi>
7.6000

> <smiles>
Cn1nc2cc(N(c3ccc(C(=O)N4CCC(F)(F)CC4)cc3)C3CCC3)ccn2c1=O

> <minimizedAffinity>
-10.87173

> <minimizedRMSD>
0.79323

$$$$
compound_36


 28 31  0  0  0  0  0  0  0  0999 V2000
   -2.9204   13.2287   15.3606 C   0  0  0  0  0  0  0  0  0  0  0  0
   -3.4893   14.4781   15.7002 C   0  0  0  0  0  0  0  0  0  0  0  0
   -4.6758   14.9088   15.0749 C   0  0  0  0  0  0  0  0  0  0  0  0
   -5.3009   14.0844   14.1178 C   0  0  0  0  0  0  0  0  0  0  0  0
   -4.7021   12.8665   13.7387 C   0  0  0  0  0  0  0  0  0  0  0  0
   -3.5212   12.4368   14.3622 C   0  0  0  0  0  0  0  0  0  0  0  0
   -0.5909   12.9786   15.4321 O   0  0  0  0  0  0  0  0  0  0  0  0
   -1.6581   12.7465   16.0067 C   0  0  0  0  0  0  0  0  0  0  0  0
   -1.7475   12.0469   17.1660 N   0  0  0  0  0  0  0  0  0  0  0  0
   -2.9840   11.6801   17.8693 C   0  0  0  0  0  0  0  0  0  0  0  0
   -2.9931   12.3355   19.2638 C   0  0  0  0  0  0  0  0  0  0  0  0
   -1.7281   11.9690   20.0660 C   0  0  0  0  0  0  0  0  0  0  0  0
   -0.4433   12.1606   19.2384 C   0  0  0  0  0  0  0  0  0  0  0  0
   -0.5729   11.5015   17.8537 C   0  0  0  0  0  0  0  0  0  0  0  0
   -6.5625   14.5172   13.4167 C   0  0  0  0  0  0  0  0  0  0  0  0
   -7.1370   13.4679   12.6382 O   0  0  0  0  0  0  0  0  0  0  0  0
   -7.7535   13.7632   11.4326 C   0  0  0  0  0  0  0  0  0  0  0  0
   -7.7280   15.1186   11.0257 C   0  0  0  0  0  0  0  0  0  0  0  0
   -8.3543   15.5327    9.8356 C   0  0  0  0  0  0  0  0  0  0  0  0
   -8.9945   14.5917    9.0153 C   0  0  0  0  0  0  0  0  0  0  0  0
   -8.9930   13.2380    9.3866 C   0  0  0  0  0  0  0  0  0  0  0  0
   -8.3862   12.8067   10.5880 C   0  0  0  0  0  0  0  0  0  0  0  0
   -8.4039   11.3704   10.8949 C   0  0  0  0  0  0  0  0  0  0  0  0
   -8.4018   10.7736   12.1918 C   0  0  0  0  0  0  0  0  0  0  0  0
   -8.4342    9.4583   12.1168 N   0  0  0  0  0  0  0  0  0  0  0  0
   -8.5397    9.1865   10.7926 N   0  0  0  0  0  0  0  0  0  0  0  0
   -8.2852   10.2930   10.0284 C   0  0  0  0  0  0  0  0  0  0  0  0
   -8.4871    8.2396   10.4211 H   0  0  0  0  0  0  0  0  0  0  0  0
  8  7  2  0
  1  8  1  0
  2  1  1  0
  3  2  2  0
  4  3  1  0
 15  4  1  0
 16 15  1  0
 17 16  1  0
 18 17  2  0
 19 18  1  0
 20 19  2  0
 21 20  1  0
 22 17  1  0
 22 21  2  0
 23 22  1  0
 24 23  1  0
 25 24  2  0
 26 25  1  0
 27 23  2  0
 27 26  1  0
  5  4  2  0
  6  1  2  0
  6  5  1  0
  9  8  1  0
 10  9  1  0
 11 10  1  0
 12 11  1  0
 13 12  1  0
 14  9  1  0
 14 13  1  0
 28 26  1  0
M  END
> <ID>
compound_36

> <series>
3

> <pKi>
8.8463

> <FEP_pKi>
8.6804

> <smiles>
O=C(c1ccc(COc2ccccc2-c2cn[nH]c2)cc1)N1CCCCC1

> <minimizedAffinity>
-11.60423

> <minimizedRMSD>
0.71724

$$$$
compound_34


 30 33  0  0  0  0  0  0  0  0999 V2000
   -6.9632   13.7751   12.5788 O   0  0  0  0  0  0  0  0  0  0  0  0
   -8.2775   13.2788   10.6002 C   0  0  0  0  0  0  0  0  0  0  0  0
   -8.9261   13.7417    9.4291 C   0  0  0  0  0  0  0  0  0  0  0  0
   -8.9865   15.1037    9.1191 C   0  0  0  0  0  0  0  0  0  0  0  0
   -8.4458   16.0317   10.0116 C   0  0  0  0  0  0  0  0  0  0  0  0
   -7.7869   15.5997   11.1739 C   0  0  0  0  0  0  0  0  0  0  0  0
   -7.6662   14.2201   11.4784 C   0  0  0  0  0  0  0  0  0  0  0  0
   -8.8533   11.0259    9.8069 N   0  0  0  0  0  0  0  0  0  0  0  0
  -10.0616    9.3134    9.0854 O   0  0  0  0  0  0  0  0  0  0  0  0
   -9.3209    9.7732    9.9300 C   0  0  0  0  0  0  0  0  0  0  0  0
   -8.9562    9.0876   11.1567 C   0  0  0  0  0  0  0  0  0  0  0  0
   -8.4124    9.7813   12.1639 C   0  0  0  0  0  0  0  0  0  0  0  0
   -8.1451   11.2094   12.0381 C   0  0  0  0  0  0  0  0  0  0  0  0
   -8.3691   11.8195   10.8570 C   0  0  0  0  0  0  0  0  0  0  0  0
   -9.0671   11.5107    8.9498 H   0  0  0  0  0  0  0  0  0  0  0  0
   -6.4797   14.7277   13.5245 C   0  0  0  0  0  0  0  0  0  0  0  0
   -3.6583   12.4196   14.6396 C   0  0  0  0  0  0  0  0  0  0  0  0
   -4.7984   12.9161   13.9923 C   0  0  0  0  0  0  0  0  0  0  0  0
   -5.2912   14.1967   14.2965 C   0  0  0  0  0  0  0  0  0  0  0  0
   -4.6291   14.9904   15.2573 C   0  0  0  0  0  0  0  0  0  0  0  0
   -3.4719   14.5025   15.8996 C   0  0  0  0  0  0  0  0  0  0  0  0
   -2.9802   13.2160   15.5826 C   0  0  0  0  0  0  0  0  0  0  0  0
   -0.4816   11.4229   17.8700 C   0  0  0  0  0  0  0  0  0  0  0  0
   -0.1803   11.9632   19.2779 C   0  0  0  0  0  0  0  0  0  0  0  0
   -1.3912   11.7847   20.2103 C   0  0  0  0  0  0  0  0  0  0  0  0
   -2.6838   12.3165   19.5641 C   0  0  0  0  0  0  0  0  0  0  0  0
   -2.8726   11.7457   18.1471 C   0  0  0  0  0  0  0  0  0  0  0  0
   -1.6915   12.0531   17.3274 N   0  0  0  0  0  0  0  0  0  0  0  0
   -1.6878   12.7170   16.1444 C   0  0  0  0  0  0  0  0  0  0  0  0
   -0.6738   12.9049   15.4677 O   0  0  0  0  0  0  0  0  0  0  0  0
 24 23  1  0
 25 24  1  0
 26 25  1  0
 27 26  1  0
 28 23  1  0
 28 27  1  0
 18 17  2  0
 10  8  1  0
 10  9  2  0
 11 10  1  0
 12 11  2  0
 13 12  1  0
 14  8  1  0
 14 13  2  0
  2 14  1  0
  3  2  2  0
  4  3  1  0
  5  4  2  0
  6  5  1  0
  7  2  1  0
  7  6  2  0
  1  7  1  0
 16  1  1  0
 19 18  1  0
 19 16  1  0
 20 19  2  0
 21 20  1  0
 22 17  1  0
 22 21  2  0
 29 28  1  0
 29 22  1  0
 30 29  2  0
 15  8  1  0
M  END
> <ID>
compound_34

> <series>
3

> <pKi>
8.3711

> <FEP_pKi>
8.5704

> <smiles>
O=C(c1ccc(COc2ccccc2-c2cccc(=O)[nH]2)cc1)N1CCCCC1

> <minimizedAffinity>
-12.45137

> <minimizedRMSD>
0.26274

$$$$
compound_51


 31 36  0  0  0  0  0  0  0  0999 V2000
   -6.5429   14.8030   13.5123 C   0  0  0  0  0  0  0  0  0  0  0  0
   -7.1014   15.9204   13.9994 C   0  0  0  0  0  0  0  0  0  0  0  0
   -6.5884   16.6695   15.2036 C   0  0  0  0  0  0  0  0  0  0  0  0
   -5.3209   16.2587   15.6821 O   0  0  0  0  0  0  0  0  0  0  0  0
   -4.7821   15.0874   15.2220 C   0  0  0  0  0  0  0  0  0  0  0  0
   -5.2986   14.3472   14.1361 C   0  0  0  0  0  0  0  0  0  0  0  0
   -4.6104   13.1951   13.6936 C   0  0  0  0  0  0  0  0  0  0  0  0
   -3.5371   12.6908   14.4351 C   0  0  0  0  0  0  0  0  0  0  0  0
   -3.1209   13.3779   15.5879 C   0  0  0  0  0  0  0  0  0  0  0  0
   -3.6673   14.6213   15.9087 C   0  0  0  0  0  0  0  0  0  0  0  0
  -10.1858   13.5343    7.3743 C   0  0  0  0  0  0  0  0  0  0  0  0
   -9.4485   13.4562    8.6289 N   0  0  0  0  0  0  0  0  0  0  0  0
   -8.8991   14.5740    9.1699 N   0  0  0  0  0  0  0  0  0  0  0  0
   -8.3718   14.1457   10.2666 C   0  0  0  0  0  0  0  0  0  0  0  0
   -7.6443   14.8038   11.3331 C   0  0  0  0  0  0  0  0  0  0  0  0
   -7.1939   14.1130   12.4101 C   0  0  0  0  0  0  0  0  0  0  0  0
   -7.4424   12.6787   12.4912 C   0  0  0  0  0  0  0  0  0  0  0  0
   -8.1106   12.0525   11.5085 C   0  0  0  0  0  0  0  0  0  0  0  0
   -8.5635   12.7869   10.4104 N   0  0  0  0  0  0  0  0  0  0  0  0
   -9.2516   12.3569    9.3579 C   0  0  0  0  0  0  0  0  0  0  0  0
   -9.6292   11.2140    9.1061 O   0  0  0  0  0  0  0  0  0  0  0  0
   -2.1745   12.7851   16.4823 C   0  0  0  0  0  0  0  0  0  0  0  0
   -2.3328   12.5593   17.8110 N   0  0  0  0  0  0  0  0  0  0  0  0
   -1.1394   12.0498   18.1160 C   0  0  0  0  0  0  0  0  0  0  0  0
   -0.3946   11.7918   17.0606 N   0  0  0  0  0  0  0  0  0  0  0  0
   -1.0004   12.4024   16.0146 N   0  0  0  0  0  0  0  0  0  0  0  0
   -0.6707   11.8294   19.4961 C   0  0  0  0  0  0  0  0  0  0  0  0
   -3.4350   12.8754   18.7057 C   0  0  0  0  0  0  0  0  0  0  0  0
   -3.8118   11.7624   19.6945 C   0  0  0  0  0  0  0  0  0  0  0  0
   -2.7836   11.4694   20.7926 C   0  0  0  0  0  0  0  0  0  0  0  0
   -1.5278   10.8261   20.2340 C   0  0  0  0  0  0  0  0  0  0  0  0
 12 11  1  0
 13 12  1  0
 14 13  2  0
 15 14  1  0
 16 15  2  0
 17 16  1  0
 18 17  2  0
 19 14  1  0
 19 18  1  0
 20 12  1  0
 20 19  1  0
 21 20  2  0
  1 16  1  0
  2  1  2  0
  3  2  1  0
  4  3  1  0
  5  4  1  0
  6  1  1  0
  6  5  2  0
  7  6  1  0
  8  7  2  0
  9  8  1  0
 10  5  1  0
 10  9  2  0
 22  9  1  0
 23 22  1  0
 24 23  1  0
 25 24  2  0
 26 22  2  0
 26 25  1  0
 27 24  1  0
 28 23  1  0
 29 28  1  0
 30 29  1  0
 31 27  1  0
 31 30  1  0
M  END
> <ID>
compound_51

> <series>
4_5

> <pKi>
10.0939

> <FEP_pKi>
9.4431

> <smiles>
Cn1nc2cc(C3=CCOc4cc(-c5nnc6n5CCCCC6)ccc43)ccn2c1=O

> <minimizedAffinity>
-14.25937

> <minimizedRMSD>
0.53074

$$$$
compound_19


 33 37  0  0  0  0  0  0  0  0999 V2000
   -5.2669   14.3266   14.1244 C   0  0  0  0  0  0  0  0  0  0  0  0
   -4.7473   14.9275   15.3182 C   0  0  0  0  0  0  0  0  0  0  0  0
   -3.5298   14.4238   15.8667 C   0  0  0  0  0  0  0  0  0  0  0  0
   -3.3166   15.2534   16.8265 N   0  0  0  0  0  0  0  0  0  0  0  0
   -4.4216   16.0031   17.1790 C   0  0  0  0  0  0  0  0  0  0  0  0
   -5.3039   15.9190   16.1887 C   0  0  0  0  0  0  0  0  0  0  0  0
   -2.8556   13.3241   15.3120 C   0  0  0  0  0  0  0  0  0  0  0  0
   -3.3447   12.7697   14.1156 C   0  0  0  0  0  0  0  0  0  0  0  0
   -4.5136   13.2806   13.5283 C   0  0  0  0  0  0  0  0  0  0  0  0
   -2.4990   15.3222   17.4249 H   0  0  0  0  0  0  0  0  0  0  0  0
   -1.6132   12.7745   15.9276 C   0  0  0  0  0  0  0  0  0  0  0  0
   -1.7037   12.0460   17.0682 N   0  0  0  0  0  0  0  0  0  0  0  0
   -2.9436   11.6744   17.7685 C   0  0  0  0  0  0  0  0  0  0  0  0
   -2.9306   12.2675   19.1908 C   0  0  0  0  0  0  0  0  0  0  0  0
   -1.6681   11.8344   19.9562 C   0  0  0  0  0  0  0  0  0  0  0  0
   -1.7666   10.5383   20.2432 F   0  0  0  0  0  0  0  0  0  0  0  0
   -1.5837   12.5113   21.0994 F   0  0  0  0  0  0  0  0  0  0  0  0
   -0.3832   12.0540   19.1313 C   0  0  0  0  0  0  0  0  0  0  0  0
   -0.5218   11.4652   17.7151 C   0  0  0  0  0  0  0  0  0  0  0  0
   -0.5584   12.9931   15.3411 O   0  0  0  0  0  0  0  0  0  0  0  0
   -7.2226   15.8629   14.0124 C   0  0  0  0  0  0  0  0  0  0  0  0
   -6.4817   14.7249   13.4692 N   0  0  0  0  0  0  0  0  0  0  0  0
   -7.1046   14.0729   12.3987 C   0  0  0  0  0  0  0  0  0  0  0  0
   -7.5617   14.7900   11.3339 C   0  0  0  0  0  0  0  0  0  0  0  0
   -8.3385   14.1802   10.2725 C   0  0  0  0  0  0  0  0  0  0  0  0
   -8.5823   12.8261   10.4136 N   0  0  0  0  0  0  0  0  0  0  0  0
   -8.1270   12.0577   11.4886 C   0  0  0  0  0  0  0  0  0  0  0  0
   -7.4011   12.6422   12.4603 C   0  0  0  0  0  0  0  0  0  0  0  0
   -8.8449   14.6354    9.1752 N   0  0  0  0  0  0  0  0  0  0  0  0
   -9.4088   13.5319    8.6137 N   0  0  0  0  0  0  0  0  0  0  0  0
  -10.0797   13.6368    7.3228 C   0  0  0  0  0  0  0  0  0  0  0  0
   -9.2551   12.4211    9.3446 C   0  0  0  0  0  0  0  0  0  0  0  0
   -9.6540   11.2837    9.0885 O   0  0  0  0  0  0  0  0  0  0  0  0
 22 21  1  0
 23 22  1  0
 24 23  2  0
 25 24  1  0
 26 25  1  0
 27 26  1  0
 28 23  1  0
 28 27  2  0
 29 25  2  0
 30 29  1  0
 31 30  1  0
 32 26  1  0
 32 30  1  0
 33 32  2  0
  1 22  1  0
  2  1  2  0
  3  2  1  0
  4  3  1  0
  5  4  1  0
  6  2  1  0
  6  5  2  0
  7  3  2  0
 11  7  1  0
 12 11  1  0
 13 12  1  0
 14 13  1  0
 15 14  1  0
 16 15  1  0
 17 15  1  0
 18 15  1  0
 19 12  1  0
 19 18  1  0
 20 11  2  0
  8  7  1  0
  9  1  1  0
  9  8  2  0
 10  4  1  0
M  END
> <ID>
compound_19

> <series>
1

> <pKi>
8.8000

> <FEP_pKi>
11.2000

> <smiles>
CN(c1ccn2c(=O)n(C)nc2c1)c1ccc(C(=O)N2CCC(F)(F)CC2)c2[nH]ccc12

> <minimizedAffinity>
-13.61454

> <minimizedRMSD>
0.45606

$$$$
compound_11


 31 34  0  0  0  0  0  0  0  0999 V2000
   -2.7599   13.7994   15.4393 C   0  0  0  0  0  0  0  0  0  0  0  0
   -3.1283   13.6798   14.0886 C   0  0  0  0  0  0  0  0  0  0  0  0
   -4.2246   14.4073   13.5976 C   0  0  0  0  0  0  0  0  0  0  0  0
   -4.9990   15.2438   14.4410 C   0  0  0  0  0  0  0  0  0  0  0  0
   -4.5306   15.4748   15.7584 C   0  0  0  0  0  0  0  0  0  0  0  0
   -3.4269   14.7375   16.2540 C   0  0  0  0  0  0  0  0  0  0  0  0
   -0.5561   12.9963   15.3467 O   0  0  0  0  0  0  0  0  0  0  0  0
   -1.6139   12.9891   15.9730 C   0  0  0  0  0  0  0  0  0  0  0  0
   -1.7899   12.2584   17.0997 N   0  0  0  0  0  0  0  0  0  0  0  0
   -3.0461   12.1110   17.8412 C   0  0  0  0  0  0  0  0  0  0  0  0
   -2.8457   12.6367   19.2760 C   0  0  0  0  0  0  0  0  0  0  0  0
   -1.6797   11.9063   19.9757 C   0  0  0  0  0  0  0  0  0  0  0  0
   -2.0454   10.6438   20.2249 F   0  0  0  0  0  0  0  0  0  0  0  0
   -1.4075   12.4837   21.1419 F   0  0  0  0  0  0  0  0  0  0  0  0
   -0.4103   11.8935   19.1029 C   0  0  0  0  0  0  0  0  0  0  0  0
   -0.7243   11.4210   17.6695 C   0  0  0  0  0  0  0  0  0  0  0  0
   -6.2533   15.7251   13.9617 N   0  0  0  0  0  0  0  0  0  0  0  0
   -6.7813   17.0512   14.3113 C   0  0  0  0  0  0  0  0  0  0  0  0
   -7.0282   15.0490   13.0476 C   0  0  0  0  0  0  0  0  0  0  0  0
   -7.5729   15.6486   11.9479 C   0  0  0  0  0  0  0  0  0  0  0  0
   -8.1846   14.8331   10.9013 C   0  0  0  0  0  0  0  0  0  0  0  0
   -8.0330   13.4754   11.0580 N   0  0  0  0  0  0  0  0  0  0  0  0
   -7.6182   12.8829   12.2188 C   0  0  0  0  0  0  0  0  0  0  0  0
   -7.1422   13.6180   13.2302 C   0  0  0  0  0  0  0  0  0  0  0  0
   -8.8344   15.0679    9.8092 N   0  0  0  0  0  0  0  0  0  0  0  0
   -8.9639   13.8155    9.2436 N   0  0  0  0  0  0  0  0  0  0  0  0
   -9.3055   13.6311    7.8428 C   0  0  0  0  0  0  0  0  0  0  0  0
   -8.4700   12.8356    9.9935 C   0  0  0  0  0  0  0  0  0  0  0  0
   -8.4341   11.6274    9.7534 O   0  0  0  0  0  0  0  0  0  0  0  0
   -5.1194   16.4428   16.5355 O   0  0  0  0  0  0  0  0  0  0  0  0
   -5.7019   16.0215   17.7513 C   0  0  0  0  0  0  0  0  0  0  0  0
  8  7  2  0
  1  8  1  0
  2  1  1  0
  3  2  2  0
  4  3  1  0
 17  4  1  0
 18 17  1  0
 19 17  1  0
 20 19  2  0
 21 20  1  0
 22 21  1  0
 23 22  1  0
 24 19  1  0
 24 23  2  0
 25 21  2  0
 26 25  1  0
 27 26  1  0
 28 22  1  0
 28 26  1  0
 29 28  2  0
  5  4  2  0
 30  5  1  0
 31 30  1  0
  6  1  2  0
  6  5  1  0
  9  8  1  0
 10  9  1  0
 11 10  1  0
 12 11  1  0
 13 12  1  0
 14 12  1  0
 15 12  1  0
 16  9  1  0
 16 15  1  0
M  END
> <ID>
compound_11

> <series>
1

> <pKi>
8.9000

> <FEP_pKi>
10.9000

> <smiles>
COc1cc(C(=O)N2CCC(F)(F)CC2)ccc1N(C)c1ccn2c(=O)n(C)nc2c1

> <minimizedAffinity>
-11.45898

> <minimizedRMSD>
1.15468

$$$$
compound_32


 29 32  0  0  0  0  0  0  0  0999 V2000
   -6.3586   14.6674   13.4399 C   0  0  0  0  0  0  0  0  0  0  0  0
   -2.8863   13.2041   15.6015 C   0  0  0  0  0  0  0  0  0  0  0  0
   -3.5413   12.3948   14.6516 C   0  0  0  0  0  0  0  0  0  0  0  0
   -4.6779   12.8666   13.9779 C   0  0  0  0  0  0  0  0  0  0  0  0
   -5.1743   14.1572   14.2364 C   0  0  0  0  0  0  0  0  0  0  0  0
   -4.5067   14.9849   15.1657 C   0  0  0  0  0  0  0  0  0  0  0  0
   -3.3651   14.5114   15.8463 C   0  0  0  0  0  0  0  0  0  0  0  0
   -0.5829   12.8435   15.6076 O   0  0  0  0  0  0  0  0  0  0  0  0
   -1.6303   12.6858   16.2357 C   0  0  0  0  0  0  0  0  0  0  0  0
   -1.6877   12.0139   17.4143 N   0  0  0  0  0  0  0  0  0  0  0  0
   -0.5113   11.3537   17.9940 C   0  0  0  0  0  0  0  0  0  0  0  0
   -0.2104   11.9382   19.3849 C   0  0  0  0  0  0  0  0  0  0  0  0
   -1.4410   11.8300   20.3047 C   0  0  0  0  0  0  0  0  0  0  0  0
   -2.7115   12.3651   19.6180 C   0  0  0  0  0  0  0  0  0  0  0  0
   -2.8860   11.7497   18.2183 C   0  0  0  0  0  0  0  0  0  0  0  0
   -7.0419   13.6217   12.7435 O   0  0  0  0  0  0  0  0  0  0  0  0
   -7.7156   13.9245   11.5706 C   0  0  0  0  0  0  0  0  0  0  0  0
   -7.9134   15.2693   11.1640 C   0  0  0  0  0  0  0  0  0  0  0  0
   -8.5347   15.5789    9.9455 C   0  0  0  0  0  0  0  0  0  0  0  0
   -8.9611   14.5581    9.0973 C   0  0  0  0  0  0  0  0  0  0  0  0
   -8.8379   13.2325    9.5116 C   0  0  0  0  0  0  0  0  0  0  0  0
   -8.2261   12.8778   10.7369 C   0  0  0  0  0  0  0  0  0  0  0  0
   -8.2260   11.4333   11.0574 C   0  0  0  0  0  0  0  0  0  0  0  0
   -8.4464   10.9579   12.3590 C   0  0  0  0  0  0  0  0  0  0  0  0
   -8.5292    9.6514   12.6815 N   0  0  0  0  0  0  0  0  0  0  0  0
   -8.5573    8.7323   11.7122 C   0  0  0  0  0  0  0  0  0  0  0  0
   -8.3782    9.0904   10.3788 C   0  0  0  0  0  0  0  0  0  0  0  0
   -8.4813    8.1677    9.4200 F   0  0  0  0  0  0  0  0  0  0  0  0
   -8.1491   10.4346   10.0545 C   0  0  0  0  0  0  0  0  0  0  0  0
  9  8  2  0
  2  9  1  0
  3  2  1  0
  4  3  2  0
  5  4  1  0
  1  5  1  0
 16  1  1  0
 17 16  1  0
 18 17  2  0
 19 18  1  0
 20 19  2  0
 21 20  1  0
 22 17  1  0
 22 21  2  0
 23 22  1  0
 24 23  2  0
 25 24  1  0
 26 25  2  0
 27 26  1  0
 28 27  1  0
 29 23  1  0
 29 27  2  0
  6  5  2  0
  7  2  2  0
  7  6  1  0
 10  9  1  0
 11 10  1  0
 12 11  1  0
 13 12  1  0
 14 13  1  0
 15 10  1  0
 15 14  1  0
M  END
> <ID>
compound_32

> <series>
3

> <pKi>
8.8284

> <FEP_pKi>
8.0132

> <smiles>
O=C(c1ccc(COc2ccccc2-c2cncc(F)c2)cc1)N1CCCCC1

> <minimizedAffinity>
-11.93476

> <minimizedRMSD>
0.48371

$$$$
compound_33


 31 34  0  0  0  0  0  0  0  0999 V2000
   -7.0365   13.7049   12.6911 O   0  0  0  0  0  0  0  0  0  0  0  0
   -7.7176   13.9977   11.5198 C   0  0  0  0  0  0  0  0  0  0  0  0
   -7.9100   15.3372   11.1012 C   0  0  0  0  0  0  0  0  0  0  0  0
   -8.5453   15.6316    9.8856 C   0  0  0  0  0  0  0  0  0  0  0  0
   -8.9924   14.6069    9.0540 C   0  0  0  0  0  0  0  0  0  0  0  0
   -8.8682   13.2862    9.4791 C   0  0  0  0  0  0  0  0  0  0  0  0
   -8.2450   12.9442   10.7012 C   0  0  0  0  0  0  0  0  0  0  0  0
   -8.2491   11.5048   11.0394 C   0  0  0  0  0  0  0  0  0  0  0  0
   -8.4942   11.0781   12.3521 C   0  0  0  0  0  0  0  0  0  0  0  0
   -8.5713    9.7142   12.6435 C   0  0  0  0  0  0  0  0  0  0  0  0
   -8.5072    8.7389   11.6891 C   0  0  0  0  0  0  0  0  0  0  0  0
   -8.6164    7.4617   12.1249 O   0  0  0  0  0  0  0  0  0  0  0  0
   -8.3164    9.1287   10.3679 C   0  0  0  0  0  0  0  0  0  0  0  0
   -8.3518    8.2067    9.4061 F   0  0  0  0  0  0  0  0  0  0  0  0
   -8.1331   10.4873   10.0500 C   0  0  0  0  0  0  0  0  0  0  0  0
   -8.8948    7.3871   13.0258 H   0  0  0  0  0  0  0  0  0  0  0  0
   -6.3636   14.7442   13.4090 C   0  0  0  0  0  0  0  0  0  0  0  0
   -2.9357   13.2195   15.6126 C   0  0  0  0  0  0  0  0  0  0  0  0
   -3.6061   12.4187   14.6676 C   0  0  0  0  0  0  0  0  0  0  0  0
   -4.7311   12.9121   13.9906 C   0  0  0  0  0  0  0  0  0  0  0  0
   -5.2048   14.2121   14.2360 C   0  0  0  0  0  0  0  0  0  0  0  0
   -4.5405   15.0196   15.1867 C   0  0  0  0  0  0  0  0  0  0  0  0
   -3.4117   14.5242   15.8784 C   0  0  0  0  0  0  0  0  0  0  0  0
   -0.6313   12.8604   15.5679 O   0  0  0  0  0  0  0  0  0  0  0  0
   -1.6654   12.7010   16.2178 C   0  0  0  0  0  0  0  0  0  0  0  0
   -1.6971   12.0385   17.4018 N   0  0  0  0  0  0  0  0  0  0  0  0
   -2.8870   11.7746   18.2183 C   0  0  0  0  0  0  0  0  0  0  0  0
   -2.6840   12.3283   19.6407 C   0  0  0  0  0  0  0  0  0  0  0  0
   -1.4041   11.7681   20.2868 C   0  0  0  0  0  0  0  0  0  0  0  0
   -0.1917   11.9194   19.3521 C   0  0  0  0  0  0  0  0  0  0  0  0
   -0.5109   11.3684   17.9519 C   0  0  0  0  0  0  0  0  0  0  0  0
 25 24  2  0
 18 25  1  0
 19 18  1  0
 20 19  2  0
 21 20  1  0
 17 21  1  0
  1 17  1  0
  2  1  1  0
  3  2  2  0
  4  3  1  0
  5  4  2  0
  6  5  1  0
  7  2  1  0
  7  6  2  0
  8  7  1  0
  9  8  1  0
 10  9  2  0
 11 10  1  0
 12 11  1  0
 13 11  2  0
 14 13  1  0
 15  8  2  0
 15 13  1  0
 22 21  2  0
 23 18  2  0
 23 22  1  0
 26 25  1  0
 27 26  1  0
 28 27  1  0
 29 28  1  0
 30 29  1  0
 31 26  1  0
 31 30  1  0
 16 12  1  0
M  END
> <ID>
compound_33

> <series>
3

> <pKi>
8.6361

> <FEP_pKi>
8.7317

> <smiles>
O=C(c1ccc(COc2ccccc2-c2ccc(O)c(F)c2)cc1)N1CCCCC1

> <minimizedAffinity>
-12.50065

> <minimizedRMSD>
0.44879

$$$$
