compound_1
     RDKit          3D

 52 56  0  0  1  0  0  0  0  0999 V2000
   -2.8113   13.3625   15.5140 C   0  0  0  0  0  0  0  0  0  0  0  0
   -3.4616   14.4332   16.1647 C   0  0  0  0  0  0  0  0  0  0  0  0
   -4.5590   15.0809   15.5604 C   0  0  0  0  0  0  0  0  0  0  0  0
   -5.0121   14.6684   14.2746 C   0  0  0  0  0  0  0  0  0  0  0  0
   -4.3335   13.6118   13.6241 C   0  0  0  0  0  0  0  0  0  0  0  0
   -3.2481   12.9648   14.2362 C   0  0  0  0  0  0  0  0  0  0  0  0
   -5.1402   16.1247   16.2476 O   0  0  0  0  0  0  0  0  0  0  0  0
   -6.3585   16.6256   15.7105 C   0  0  0  0  0  0  0  0  0  0  0  0
   -6.2732   16.6837   14.1828 C   0  0  0  0  0  0  0  0  0  0  0  0
   -6.0815   15.3412   13.6375 N   0  0  0  0  0  0  0  0  0  0  0  0
   -1.6075   12.6992   16.1136 C   0  0  0  0  0  0  0  0  0  0  0  0
   -1.7399   11.9920   17.2640 N   0  0  0  0  0  0  0  0  0  0  0  0
   -0.5393   12.7999   15.5067 O   0  0  0  0  0  0  0  0  0  0  0  0
   -2.9624   11.8494   18.0640 C   0  0  0  0  0  0  0  0  0  0  0  0
   -2.7469   12.5278   19.4282 C   0  0  0  0  0  0  0  0  0  0  0  0
   -1.5053   11.9522   20.1377 C   0  0  0  0  0  0  0  0  0  0  0  0
   -0.2694   11.9086   19.2156 C   0  0  0  0  0  0  0  0  0  0  0  0
   -0.6221   11.2561   17.8678 C   0  0  0  0  0  0  0  0  0  0  0  0
   -1.2288   12.6827   21.2181 F   0  0  0  0  0  0  0  0  0  0  0  0
   -1.7859   10.7103   20.5334 F   0  0  0  0  0  0  0  0  0  0  0  0
   -6.8681   14.8174   12.6089 C   0  0  0  0  0  0  0  0  0  0  0  0
   -7.2637   15.6007   11.5694 C   0  0  0  0  0  0  0  0  0  0  0  0
   -8.0439   15.0616   10.4701 C   0  0  0  0  0  0  0  0  0  0  0  0
   -8.3622   13.7171   10.5524 N   0  0  0  0  0  0  0  0  0  0  0  0
   -8.0018   12.8960   11.6198 C   0  0  0  0  0  0  0  0  0  0  0  0
   -7.2834   13.4120   12.6326 C   0  0  0  0  0  0  0  0  0  0  0  0
   -8.5027   15.5829    9.3823 N   0  0  0  0  0  0  0  0  0  0  0  0
   -9.1092   14.5300    8.7687 N   0  0  0  0  0  0  0  0  0  0  0  0
   -9.0260   13.3808    9.4531 C   0  0  0  0  0  0  0  0  0  0  0  0
   -9.4445   12.2684    9.1303 O   0  0  0  0  0  0  0  0  0  0  0  0
   -9.7306   14.7332    7.4669 C   0  0  0  0  0  0  0  0  0  0  0  0
   -3.1182   14.7719   17.1320 H   0  0  0  0  0  0  0  0  0  0  0  0
   -4.6237   13.2920   12.6355 H   0  0  0  0  0  0  0  0  0  0  0  0
   -2.7430   12.1673   13.7100 H   0  0  0  0  0  0  0  0  0  0  0  0
   -7.1921   16.0002   16.0290 H   0  0  0  0  0  0  0  0  0  0  0  0
   -6.5357   17.6222   16.1160 H   0  0  0  0  0  0  0  0  0  0  0  0
   -7.1889   17.1291   13.7942 H   0  0  0  0  0  0  0  0  0  0  0  0
   -5.4484   17.3239   13.8676 H   0  0  0  0  0  0  0  0  0  0  0  0
   -3.8435   12.2523   17.5780 H   0  0  0  0  0  0  0  0  0  0  0  0
   -3.1755   10.7907   18.2061 H   0  0  0  0  0  0  0  0  0  0  0  0
   -2.6233   13.6002   19.2822 H   0  0  0  0  0  0  0  0  0  0  0  0
   -3.6306   12.4066   20.0560 H   0  0  0  0  0  0  0  0  0  0  0  0
    0.1010   12.9191   19.0410 H   0  0  0  0  0  0  0  0  0  0  0  0
    0.5410   11.3620   19.7002 H   0  0  0  0  0  0  0  0  0  0  0  0
   -0.9228   10.2194   18.0226 H   0  0  0  0  0  0  0  0  0  0  0  0
    0.2574   11.2060   17.2264 H   0  0  0  0  0  0  0  0  0  0  0  0
   -6.9561   16.6362   11.5521 H   0  0  0  0  0  0  0  0  0  0  0  0
   -8.3593   11.8772   11.5693 H   0  0  0  0  0  0  0  0  0  0  0  0
   -7.0308   12.7838   13.4737 H   0  0  0  0  0  0  0  0  0  0  0  0
  -10.2953   13.8564    7.1448 H   0  0  0  0  0  0  0  0  0  0  0  0
   -8.9680   14.9389    6.7143 H   0  0  0  0  0  0  0  0  0  0  0  0
  -10.4151   15.5820    7.5029 H   0  0  0  0  0  0  0  0  0  0  0  0
  2  1  2  0
  3  2  1  0
  4  3  2  0
  5  4  1  0
  6  1  1  0
  6  5  2  0
  7  3  1  0
  8  7  1  0
  9  8  1  0
 10  4  1  0
 10  9  1  0
 11  1  1  0
 12 11  1  0
 13 11  2  0
 14 12  1  0
 15 14  1  0
 16 15  1  0
 17 16  1  0
 18 12  1  0
 18 17  1  0
 19 16  1  0
 20 16  1  0
 21 10  1  0
 22 21  2  0
 23 22  1  0
 24 23  1  0
 25 24  1  0
 26 21  1  0
 26 25  2  0
 27 23  2  0
 28 27  1  0
 29 24  1  0
 29 28  1  0
 30 29  2  0
 31 28  1  0
 32  2  1  0
 33  5  1  0
 34  6  1  0
 35  8  1  0
 36  8  1  0
 37  9  1  0
 38  9  1  0
 39 14  1  0
 40 14  1  0
 41 15  1  0
 42 15  1  0
 43 17  1  0
 44 17  1  0
 45 18  1  0
 46 18  1  0
 47 22  1  0
 48 25  1  0
 49 26  1  0
 50 31  1  0
 51 31  1  0
 52 31  1  0
M  END
>  <ID>  (1) 
compound_1

>  <series>  (1) 
1

>  <pKi>  (1) 
10.5037

>  <FEP_pKi>  (1) 
10.2551

>  <smiles>  (1) 
Cn1nc2cc(N3CCOc4cc(C(=O)N5CCC(F)(F)CC5)ccc43)ccn2c1=O

$$$$
compound_2
     RDKit          3D

 51 55  0  0  1  0  0  0  0  0999 V2000
   -2.7834   13.3229   15.5250 C   0  0  0  0  0  0  0  0  0  0  0  0
   -3.4228   14.4192   16.1377 C   0  0  0  0  0  0  0  0  0  0  0  0
   -4.5821   14.9766   15.5607 C   0  0  0  0  0  0  0  0  0  0  0  0
   -5.1263   14.4411   14.3608 C   0  0  0  0  0  0  0  0  0  0  0  0
   -4.4201   13.3960   13.7202 C   0  0  0  0  0  0  0  0  0  0  0  0
   -3.2671   12.8407   14.2961 C   0  0  0  0  0  0  0  0  0  0  0  0
   -6.3285   14.9955   13.8294 C   0  0  0  0  0  0  0  0  0  0  0  0
   -1.5678   12.6954   16.1309 C   0  0  0  0  0  0  0  0  0  0  0  0
   -1.7056   11.9993   17.2859 N   0  0  0  0  0  0  0  0  0  0  0  0
   -0.5007   12.8023   15.5252 O   0  0  0  0  0  0  0  0  0  0  0  0
   -2.9431   11.8412   18.0655 C   0  0  0  0  0  0  0  0  0  0  0  0
   -2.7586   12.5145   19.4363 C   0  0  0  0  0  0  0  0  0  0  0  0
   -1.5214   11.9492   20.1617 C   0  0  0  0  0  0  0  0  0  0  0  0
   -0.2695   11.9162   19.2639 C   0  0  0  0  0  0  0  0  0  0  0  0
   -0.5900   11.2717   17.9055 C   0  0  0  0  0  0  0  0  0  0  0  0
   -1.2688   12.6835   21.2444 F   0  0  0  0  0  0  0  0  0  0  0  0
   -1.7939   10.7037   20.5520 F   0  0  0  0  0  0  0  0  0  0  0  0
   -7.0327   14.4514   12.6362 C   0  0  0  0  0  0  0  0  0  0  0  0
   -7.5412   15.2946   11.6983 C   0  0  0  0  0  0  0  0  0  0  0  0
   -8.2396   14.7952   10.5280 C   0  0  0  0  0  0  0  0  0  0  0  0
   -8.3892   13.4242   10.4475 N   0  0  0  0  0  0  0  0  0  0  0  0
   -7.9100   12.5343   11.4033 C   0  0  0  0  0  0  0  0  0  0  0  0
   -7.2477   13.0100   12.4736 C   0  0  0  0  0  0  0  0  0  0  0  0
   -8.7623   15.3810    9.5046 N   0  0  0  0  0  0  0  0  0  0  0  0
   -9.2533   14.3444    8.7743 N   0  0  0  0  0  0  0  0  0  0  0  0
   -9.0439   13.1432    9.3273 C   0  0  0  0  0  0  0  0  0  0  0  0
   -9.3777   12.0396    8.8936 O   0  0  0  0  0  0  0  0  0  0  0  0
   -9.9412   14.6230    7.5208 C   0  0  0  0  0  0  0  0  0  0  0  0
   -5.1925   16.0743   16.1935 C   0  0  0  0  0  0  0  0  0  0  0  0
   -6.3461   16.6518   15.6410 C   0  0  0  0  0  0  0  0  0  0  0  0
   -6.9108   16.1134   14.4723 C   0  0  0  0  0  0  0  0  0  0  0  0
   -3.0300   14.8278   17.0584 H   0  0  0  0  0  0  0  0  0  0  0  0
   -4.7395   13.0003   12.7737 H   0  0  0  0  0  0  0  0  0  0  0  0
   -2.7600   12.0325   13.7890 H   0  0  0  0  0  0  0  0  0  0  0  0
   -3.8322   12.2346   17.5776 H   0  0  0  0  0  0  0  0  0  0  0  0
   -3.1413   10.7789   18.2053 H   0  0  0  0  0  0  0  0  0  0  0  0
   -2.6537   13.5911   19.3006 H   0  0  0  0  0  0  0  0  0  0  0  0
   -3.6489   12.3687   20.0504 H   0  0  0  0  0  0  0  0  0  0  0  0
    0.1016   12.9278   19.1008 H   0  0  0  0  0  0  0  0  0  0  0  0
    0.5340   11.3712   19.7615 H   0  0  0  0  0  0  0  0  0  0  0  0
   -0.8898   10.2328   18.0445 H   0  0  0  0  0  0  0  0  0  0  0  0
    0.3078   11.2370   17.2880 H   0  0  0  0  0  0  0  0  0  0  0  0
   -7.3942   16.3553   11.8239 H   0  0  0  0  0  0  0  0  0  0  0  0
   -8.1167   11.4920   11.2102 H   0  0  0  0  0  0  0  0  0  0  0  0
   -6.8973   12.3168   13.2254 H   0  0  0  0  0  0  0  0  0  0  0  0
   -9.4137   14.1625    6.6861 H   0  0  0  0  0  0  0  0  0  0  0  0
  -10.0013   15.6958    7.3314 H   0  0  0  0  0  0  0  0  0  0  0  0
  -10.9574   14.2293    7.5442 H   0  0  0  0  0  0  0  0  0  0  0  0
   -4.7703   16.4903   17.0976 H   0  0  0  0  0  0  0  0  0  0  0  0
   -6.8094   17.4994   16.1249 H   0  0  0  0  0  0  0  0  0  0  0  0
   -7.8243   16.5510   14.0959 H   0  0  0  0  0  0  0  0  0  0  0  0
  2  1  2  0
  3  2  1  0
  4  3  1  0
  5  4  1  0
  6  1  1  0
  6  5  2  0
  7  4  2  0
  8  1  1  0
  9  8  1  0
 10  8  2  0
 11  9  1  0
 12 11  1  0
 13 12  1  0
 14 13  1  0
 15  9  1  0
 15 14  1  0
 16 13  1  0
 17 13  1  0
 18  7  1  0
 19 18  2  0
 20 19  1  0
 21 20  1  0
 22 21  1  0
 23 18  1  0
 23 22  2  0
 24 20  2  0
 25 24  1  0
 26 21  1  0
 26 25  1  0
 27 26  2  0
 28 25  1  0
 29  3  2  0
 30 29  1  0
 31  7  1  0
 31 30  2  0
 32  2  1  0
 33  5  1  0
 34  6  1  0
 35 11  1  0
 36 11  1  0
 37 12  1  0
 38 12  1  0
 39 14  1  0
 40 14  1  0
 41 15  1  0
 42 15  1  0
 43 19  1  0
 44 22  1  0
 45 23  1  0
 46 28  1  0
 47 28  1  0
 48 28  1  0
 49 29  1  0
 50 30  1  0
 51 31  1  0
M  END
>  <ID>  (2) 
compound_2

>  <series>  (2) 
1

>  <pKi>  (2) 
10.1659

>  <FEP_pKi>  (2) 
11.3661

>  <smiles>  (2) 
Cn1nc2cc(-c3cccc4cc(C(=O)N5CCC(F)(F)CC5)ccc34)ccn2c1=O

$$$$
compound_20
     RDKit          3D

 43 46  0  0  1  0  0  0  0  0999 V2000
   -1.2658   12.6234   21.2215 F   0  0  0  0  0  0  0  0  0  0  0  0
   -1.4739   11.9161   20.1183 C   0  0  0  0  0  0  0  0  0  0  0  0
   -2.7145   12.4370   19.3769 C   0  0  0  0  0  0  0  0  0  0  0  0
   -2.8691   11.7655   18.0036 C   0  0  0  0  0  0  0  0  0  0  0  0
   -1.6315   11.9560   17.2443 N   0  0  0  0  0  0  0  0  0  0  0  0
   -0.5110   11.2641   17.8834 C   0  0  0  0  0  0  0  0  0  0  0  0
   -0.2212   11.9252   19.2350 C   0  0  0  0  0  0  0  0  0  0  0  0
   -1.5098   12.6342   16.0817 C   0  0  0  0  0  0  0  0  0  0  0  0
   -0.4556   12.7054   15.4535 O   0  0  0  0  0  0  0  0  0  0  0  0
   -2.7160   13.2912   15.4916 C   0  0  0  0  0  0  0  0  0  0  0  0
   -3.3909   14.3602   16.1207 C   0  0  0  0  0  0  0  0  0  0  0  0
   -4.5492   14.9000   15.5140 C   0  0  0  0  0  0  0  0  0  0  0  0
   -4.9467   14.2932   14.2955 C   0  0  0  0  0  0  0  0  0  0  0  0
   -4.2899   13.3018   13.6364 N   0  0  0  0  0  0  0  0  0  0  0  0
   -3.1864   12.8452   14.2483 C   0  0  0  0  0  0  0  0  0  0  0  0
   -6.1368   14.8790   13.9006 N   0  0  0  0  0  0  0  0  0  0  0  0
   -6.4397   15.8941   14.8002 C   0  0  0  0  0  0  0  0  0  0  0  0
   -5.4947   15.9388   15.7935 C   0  0  0  0  0  0  0  0  0  0  0  0
   -6.9034   14.4888   12.7746 C   0  0  0  0  0  0  0  0  0  0  0  0
   -7.2545   13.1380   12.5923 C   0  0  0  0  0  0  0  0  0  0  0  0
   -7.9767   12.7360   11.4575 C   0  0  0  0  0  0  0  0  0  0  0  0
   -8.3396   13.6888   10.4926 C   0  0  0  0  0  0  0  0  0  0  0  0
   -8.0181   15.0395   10.6778 C   0  0  0  0  0  0  0  0  0  0  0  0
   -7.3055   15.4381   11.8196 C   0  0  0  0  0  0  0  0  0  0  0  0
   -9.0466   13.2960    9.2994 C   0  0  0  0  0  0  0  0  0  0  0  0
   -9.6163   12.9915    8.3453 N   0  0  0  0  0  0  0  0  0  0  0  0
   -1.6683   10.8952   20.4512 H   0  0  0  0  0  0  0  0  0  0  0  0
   -2.6351   13.5166   19.2439 H   0  0  0  0  0  0  0  0  0  0  0  0
   -3.6082   12.2717   19.9806 H   0  0  0  0  0  0  0  0  0  0  0  0
   -3.7614   12.1350   17.5064 H   0  0  0  0  0  0  0  0  0  0  0  0
   -3.0434   10.6960   18.1336 H   0  0  0  0  0  0  0  0  0  0  0  0
   -0.7790   10.2180   18.0231 H   0  0  0  0  0  0  0  0  0  0  0  0
    0.3884   11.2437   17.2714 H   0  0  0  0  0  0  0  0  0  0  0  0
    0.5871   11.3950   19.7416 H   0  0  0  0  0  0  0  0  0  0  0  0
    0.1240   12.9478   19.0800 H   0  0  0  0  0  0  0  0  0  0  0  0
   -3.0408   14.7565   17.0634 H   0  0  0  0  0  0  0  0  0  0  0  0
   -2.6785   12.0437   13.7281 H   0  0  0  0  0  0  0  0  0  0  0  0
   -7.3259   16.4968   14.6743 H   0  0  0  0  0  0  0  0  0  0  0  0
   -5.4707   16.6068   16.6423 H   0  0  0  0  0  0  0  0  0  0  0  0
   -6.9553   12.3999   13.3227 H   0  0  0  0  0  0  0  0  0  0  0  0
   -8.2277   11.6952   11.3224 H   0  0  0  0  0  0  0  0  0  0  0  0
   -8.3009   15.7824    9.9468 H   0  0  0  0  0  0  0  0  0  0  0  0
   -7.0422   16.4788   11.9481 H   0  0  0  0  0  0  0  0  0  0  0  0
  2  1  1  0
  3  2  1  0
  4  3  1  0
  5  4  1  0
  6  5  1  0
  7  2  1  0
  7  6  1  0
  8  5  1  0
  9  8  2  0
 10  8  1  0
 11 10  2  0
 12 11  1  0
 13 12  2  0
 14 13  1  0
 15 10  1  0
 15 14  2  0
 16 13  1  0
 17 16  1  0
 18 12  1  0
 18 17  2  0
 19 16  1  0
 20 19  1  0
 21 20  2  0
 22 21  1  0
 23 22  2  0
 24 19  2  0
 24 23  1  0
 25 22  1  0
 26 25  3  0
 27  2  1  0
 28  3  1  0
 29  3  1  0
 30  4  1  0
 31  4  1  0
 32  6  1  0
 33  6  1  0
 34  7  1  0
 35  7  1  0
 36 11  1  0
 37 15  1  0
 38 17  1  0
 39 18  1  0
 40 20  1  0
 41 21  1  0
 42 23  1  0
 43 24  1  0
M  END
>  <ID>  (3) 
compound_20

>  <series>  (3) 
2

>  <pKi>  (3) 
8.7610

>  <FEP_pKi>  (3) 
9.4648

>  <smiles>  (3) 
N#Cc1ccc(-n2ccc3cc(C(=O)N4CCC(F)CC4)cnc32)cc1

$$$$
compound_4
     RDKit          3D

 43 45  0  0  1  0  0  0  0  0999 V2000
   -8.2304   11.5100   12.0228 Br  0  0  0  0  0  0  0  0  0  0  0  0
   -8.2428   13.2187   11.1967 C   0  0  0  0  0  0  0  0  0  0  0  0
   -8.8449   13.3489    9.9287 C   0  0  0  0  0  0  0  0  0  0  0  0
   -8.9113   14.6052    9.3040 C   0  0  0  0  0  0  0  0  0  0  0  0
   -8.3766   15.7318    9.9554 C   0  0  0  0  0  0  0  0  0  0  0  0
   -7.7542   15.6006   11.2134 C   0  0  0  0  0  0  0  0  0  0  0  0
   -7.6657   14.3335   11.8401 C   0  0  0  0  0  0  0  0  0  0  0  0
   -7.0555   14.1115   13.0593 O   0  0  0  0  0  0  0  0  0  0  0  0
   -6.2099   15.1122   13.6230 C   0  0  0  0  0  0  0  0  0  0  0  0
   -5.0100   14.4803   14.3037 C   0  0  0  0  0  0  0  0  0  0  0  0
   -4.3212   13.4494   13.6413 C   0  0  0  0  0  0  0  0  0  0  0  0
   -3.1876   12.8562   14.2355 C   0  0  0  0  0  0  0  0  0  0  0  0
   -2.7434   13.2959   15.4963 C   0  0  0  0  0  0  0  0  0  0  0  0
   -3.4148   14.3549   16.1490 C   0  0  0  0  0  0  0  0  0  0  0  0
   -4.5497   14.9459   15.5553 C   0  0  0  0  0  0  0  0  0  0  0  0
   -1.5219   12.6735   16.0975 C   0  0  0  0  0  0  0  0  0  0  0  0
   -0.4547   12.7703   15.4837 O   0  0  0  0  0  0  0  0  0  0  0  0
   -1.6410   11.9892   17.2791 N   0  0  0  0  0  0  0  0  0  0  0  0
   -2.8787   11.8024   18.0364 C   0  0  0  0  0  0  0  0  0  0  0  0
   -2.7301   12.4513   19.4309 C   0  0  0  0  0  0  0  0  0  0  0  0
   -1.4861   11.9182   20.1711 C   0  0  0  0  0  0  0  0  0  0  0  0
   -0.2319   11.9350   19.2799 C   0  0  0  0  0  0  0  0  0  0  0  0
   -0.5153   11.3008   17.9039 C   0  0  0  0  0  0  0  0  0  0  0  0
   -9.2712   12.4816    9.4461 H   0  0  0  0  0  0  0  0  0  0  0  0
   -9.3853   14.7094    8.3389 H   0  0  0  0  0  0  0  0  0  0  0  0
   -8.4464   16.7006    9.4858 H   0  0  0  0  0  0  0  0  0  0  0  0
   -7.3690   16.4901   11.6885 H   0  0  0  0  0  0  0  0  0  0  0  0
   -6.7834   15.7107   14.3328 H   0  0  0  0  0  0  0  0  0  0  0  0
   -5.8053   15.7924   12.8739 H   0  0  0  0  0  0  0  0  0  0  0  0
   -4.6530   13.1136   12.6718 H   0  0  0  0  0  0  0  0  0  0  0  0
   -2.6665   12.0603   13.7166 H   0  0  0  0  0  0  0  0  0  0  0  0
   -3.0617   14.7143   17.1057 H   0  0  0  0  0  0  0  0  0  0  0  0
   -5.0640   15.7507   16.0512 H   0  0  0  0  0  0  0  0  0  0  0  0
   -3.0698   10.7264   18.1547 H   0  0  0  0  0  0  0  0  0  0  0  0
   -3.7610   12.1921   17.5443 H   0  0  0  0  0  0  0  0  0  0  0  0
   -3.6275   12.2759   20.0237 H   0  0  0  0  0  0  0  0  0  0  0  0
   -2.6445   13.5354   19.3159 H   0  0  0  0  0  0  0  0  0  0  0  0
   -1.3094   12.4945   21.0752 H   0  0  0  0  0  0  0  0  0  0  0  0
   -1.6670   10.8909   20.5025 H   0  0  0  0  0  0  0  0  0  0  0  0
    0.1236   12.9571   19.1365 H   0  0  0  0  0  0  0  0  0  0  0  0
    0.5803   11.4006   19.7797 H   0  0  0  0  0  0  0  0  0  0  0  0
   -0.7670   10.2417   18.0233 H   0  0  0  0  0  0  0  0  0  0  0  0
    0.3785   11.3002   17.2911 H   0  0  0  0  0  0  0  0  0  0  0  0
  2  1  1  0
  3  2  2  0
  4  3  1  0
  5  4  2  0
  6  5  1  0
  7  2  1  0
  7  6  2  0
  8  7  1  0
  9  8  1  0
 10  9  1  0
 11 10  1  0
 12 11  2  0
 13 12  1  0
 14 13  2  0
 15 10  2  0
 15 14  1  0
 16 13  1  0
 17 16  2  0
 18 16  1  0
 19 18  1  0
 20 19  1  0
 21 20  1  0
 22 21  1  0
 23 18  1  0
 23 22  1  0
 24  3  1  0
 25  4  1  0
 26  5  1  0
 27  6  1  0
 28  9  1  0
 29  9  1  0
 30 11  1  0
 31 12  1  0
 32 14  1  0
 33 15  1  0
 34 19  1  0
 35 19  1  0
 36 20  1  0
 37 20  1  0
 38 21  1  0
 39 21  1  0
 40 22  1  0
 41 22  1  0
 42 23  1  0
 43 23  1  0
M  END
>  <ID>  (4) 
compound_4

>  <series>  (4) 
3

>  <pKi>  (4) 
7.5801

>  <FEP_pKi>  (4) 
8.1488

>  <smiles>  (4) 
O=C(c1ccc(COc2ccccc2Br)cc1)N1CCCCC1

$$$$
compound_40
     RDKit          3D

 45 48  0  0  1  0  0  0  0  0999 V2000
   -6.4969   16.5124   15.5979 C   0  0  0  0  0  0  0  0  0  0  0  0
   -5.4636   15.4681   15.3807 C   0  0  0  0  0  0  0  0  0  0  0  0
   -4.4069   15.1371   16.1832 C   0  0  0  0  0  0  0  0  0  0  0  0
   -3.7377   14.0602   15.5609 C   0  0  0  0  0  0  0  0  0  0  0  0
   -4.3455   13.7958   14.3776 C   0  0  0  0  0  0  0  0  0  0  0  0
   -3.9429   12.8021   13.3531 C   0  0  0  0  0  0  0  0  0  0  0  0
   -5.4657   14.6146   14.2777 N   0  0  0  0  0  0  0  0  0  0  0  0
   -6.4209   14.5655   13.2207 C   0  0  0  0  0  0  0  0  0  0  0  0
   -6.9785   13.3337   12.8189 C   0  0  0  0  0  0  0  0  0  0  0  0
   -7.7542   13.2333   11.6511 C   0  0  0  0  0  0  0  0  0  0  0  0
   -8.2432   11.6865   11.0985 Cl  0  0  0  0  0  0  0  0  0  0  0  0
   -8.0576   14.3768   10.8996 C   0  0  0  0  0  0  0  0  0  0  0  0
   -8.9521   14.2654    9.4275 Cl  0  0  0  0  0  0  0  0  0  0  0  0
   -7.5810   15.6171   11.3444 C   0  0  0  0  0  0  0  0  0  0  0  0
   -6.7558   15.7135   12.4841 C   0  0  0  0  0  0  0  0  0  0  0  0
   -2.5611   13.3466   16.0320 C   0  0  0  0  0  0  0  0  0  0  0  0
   -1.5086   13.2429   15.2268 N   0  0  0  0  0  0  0  0  0  0  0  0
   -0.6433   12.4009   15.8323 N   0  0  0  0  0  0  0  0  0  0  0  0
   -1.2051   12.0820   16.9883 C   0  0  0  0  0  0  0  0  0  0  0  0
   -0.5515   11.1611   17.9485 C   0  0  0  0  0  0  0  0  0  0  0  0
   -0.3227   11.7773   19.3219 C   0  0  0  0  0  0  0  0  0  0  0  0
   -1.5884   11.6981   20.1603 C   0  0  0  0  0  0  0  0  0  0  0  0
   -2.6584   12.6858   19.7180 C   0  0  0  0  0  0  0  0  0  0  0  0
   -3.2871   12.5303   18.3241 C   0  0  0  0  0  0  0  0  0  0  0  0
   -2.3905   12.6712   17.1954 N   0  0  0  0  0  0  0  0  0  0  0  0
   -6.5165   16.8267   16.6417 H   0  0  0  0  0  0  0  0  0  0  0  0
   -6.2941   17.3960   14.9939 H   0  0  0  0  0  0  0  0  0  0  0  0
   -7.4922   16.1448   15.3505 H   0  0  0  0  0  0  0  0  0  0  0  0
   -4.1560   15.6085   17.1224 H   0  0  0  0  0  0  0  0  0  0  0  0
   -2.8794   12.8463   13.1239 H   0  0  0  0  0  0  0  0  0  0  0  0
   -4.1719   11.7955   13.6945 H   0  0  0  0  0  0  0  0  0  0  0  0
   -4.4457   12.9862   12.4195 H   0  0  0  0  0  0  0  0  0  0  0  0
   -6.7352   12.4358   13.3679 H   0  0  0  0  0  0  0  0  0  0  0  0
   -7.8129   16.5072   10.7793 H   0  0  0  0  0  0  0  0  0  0  0  0
   -6.3418   16.6731   12.7542 H   0  0  0  0  0  0  0  0  0  0  0  0
   -1.1376   10.2451   18.0254 H   0  0  0  0  0  0  0  0  0  0  0  0
    0.4125   10.8647   17.5347 H   0  0  0  0  0  0  0  0  0  0  0  0
    0.0573   12.7977   19.2463 H   0  0  0  0  0  0  0  0  0  0  0  0
    0.4538   11.2074   19.8331 H   0  0  0  0  0  0  0  0  0  0  0  0
   -1.3291   11.9164   21.1986 H   0  0  0  0  0  0  0  0  0  0  0  0
   -1.9896   10.6830   20.1623 H   0  0  0  0  0  0  0  0  0  0  0  0
   -2.2481   13.6827   19.7987 H   0  0  0  0  0  0  0  0  0  0  0  0
   -3.4658   12.6505   20.4498 H   0  0  0  0  0  0  0  0  0  0  0  0
   -3.9983   13.3470   18.2496 H   0  0  0  0  0  0  0  0  0  0  0  0
   -3.8394   11.5956   18.2329 H   0  0  0  0  0  0  0  0  0  0  0  0
  2  1  1  0
  3  2  2  0
  4  3  1  0
  5  4  2  0
  6  5  1  0
  7  2  1  0
  7  5  1  0
  8  7  1  0
  9  8  2  0
 10  9  1  0
 11 10  1  0
 12 10  2  0
 13 12  1  0
 14 12  1  0
 15  8  1  0
 15 14  2  0
 16  4  1  0
 17 16  2  0
 18 17  1  0
 19 18  2  0
 20 19  1  0
 21 20  1  0
 22 21  1  0
 23 22  1  0
 24 23  1  0
 25 16  1  0
 25 19  1  0
 25 24  1  0
 26  1  1  0
 27  1  1  0
 28  1  1  0
 29  3  1  0
 30  6  1  0
 31  6  1  0
 32  6  1  0
 33  9  1  0
 34 14  1  0
 35 15  1  0
 36 20  1  0
 37 20  1  0
 38 21  1  0
 39 21  1  0
 40 22  1  0
 41 22  1  0
 42 23  1  0
 43 23  1  0
 44 24  1  0
 45 24  1  0
M  END
>  <ID>  (5) 
compound_40

>  <series>  (5) 
4_5

>  <pKi>  (5) 
8.9297

>  <FEP_pKi>  (5) 
8.4097

>  <smiles>  (5) 
Cc1cc(-c2nnc3n2CCCCC3)c(C)n1-c1ccc(Cl)c(Cl)c1

$$$$
compound_41
     RDKit          3D

 54 59  0  0  1  0  0  0  0  0999 V2000
  -10.0095   14.4758    7.3791 C   0  0  0  0  0  0  0  0  0  0  0  0
   -9.2890   14.2814    8.6231 N   0  0  0  0  0  0  0  0  0  0  0  0
   -8.7392   15.3376    9.2652 N   0  0  0  0  0  0  0  0  0  0  0  0
   -8.2566   14.8043   10.3347 C   0  0  0  0  0  0  0  0  0  0  0  0
   -7.5754   15.3584   11.4816 C   0  0  0  0  0  0  0  0  0  0  0  0
   -7.2026   14.5755   12.5170 C   0  0  0  0  0  0  0  0  0  0  0  0
   -7.4674   13.1432   12.4591 C   0  0  0  0  0  0  0  0  0  0  0  0
   -8.0861   12.6152   11.3951 C   0  0  0  0  0  0  0  0  0  0  0  0
   -8.4762   13.4474   10.3540 N   0  0  0  0  0  0  0  0  0  0  0  0
   -9.1465   13.1222    9.2611 C   0  0  0  0  0  0  0  0  0  0  0  0
   -9.5438   12.0172    8.9058 O   0  0  0  0  0  0  0  0  0  0  0  0
   -6.6064   15.1419   13.6288 N   0  0  0  0  0  0  0  0  0  0  0  0
   -7.3574   16.0232   14.5059 C   0  0  0  0  0  0  0  0  0  0  0  0
   -6.4407   16.9700   15.2644 C   0  0  0  0  0  0  0  0  0  0  0  0
   -5.5912   16.2118   16.0985 O   0  0  0  0  0  0  0  0  0  0  0  0
   -4.9735   15.1745   15.4565 C   0  0  0  0  0  0  0  0  0  0  0  0
   -3.8791   14.5895   16.0930 C   0  0  0  0  0  0  0  0  0  0  0  0
   -3.2182   13.5300   15.4689 C   0  0  0  0  0  0  0  0  0  0  0  0
   -3.5844   13.0852   14.1998 C   0  0  0  0  0  0  0  0  0  0  0  0
   -4.6707   13.6707   13.5675 C   0  0  0  0  0  0  0  0  0  0  0  0
   -5.4210   14.6683   14.2156 C   0  0  0  0  0  0  0  0  0  0  0  0
   -2.1255   12.8747   16.0769 C   0  0  0  0  0  0  0  0  0  0  0  0
   -1.0024   12.8005   15.3902 N   0  0  0  0  0  0  0  0  0  0  0  0
   -0.2434   11.9713   16.1069 N   0  0  0  0  0  0  0  0  0  0  0  0
   -0.9020   11.6918   17.2148 C   0  0  0  0  0  0  0  0  0  0  0  0
   -0.3777   10.8682   18.3127 C   0  0  0  0  0  0  0  0  0  0  0  0
   -0.2491   11.6868   19.5952 C   0  0  0  0  0  0  0  0  0  0  0  0
   -1.5667   11.7574   20.3558 C   0  0  0  0  0  0  0  0  0  0  0  0
   -2.6249   12.5870   19.6461 C   0  0  0  0  0  0  0  0  0  0  0  0
   -3.0850   12.0699   18.2797 C   0  0  0  0  0  0  0  0  0  0  0  0
   -2.0979   12.2390   17.2587 N   0  0  0  0  0  0  0  0  0  0  0  0
  -11.0480   14.1469    7.4979 H   0  0  0  0  0  0  0  0  0  0  0  0
   -9.5588   13.8826    6.5726 H   0  0  0  0  0  0  0  0  0  0  0  0
  -10.0165   15.5273    7.0753 H   0  0  0  0  0  0  0  0  0  0  0  0
   -7.3761   16.4210   11.5446 H   0  0  0  0  0  0  0  0  0  0  0  0
   -7.1749   12.5005   13.2739 H   0  0  0  0  0  0  0  0  0  0  0  0
   -8.3345   11.5684   11.2796 H   0  0  0  0  0  0  0  0  0  0  0  0
   -8.0719   16.6062   13.9201 H   0  0  0  0  0  0  0  0  0  0  0  0
   -7.9345   15.4315   15.2190 H   0  0  0  0  0  0  0  0  0  0  0  0
   -5.8551   17.5810   14.5734 H   0  0  0  0  0  0  0  0  0  0  0  0
   -7.0239   17.6583   15.8757 H   0  0  0  0  0  0  0  0  0  0  0  0
   -3.5544   14.9486   17.0614 H   0  0  0  0  0  0  0  0  0  0  0  0
   -3.0385   12.2925   13.7051 H   0  0  0  0  0  0  0  0  0  0  0  0
   -4.9276   13.3122   12.5828 H   0  0  0  0  0  0  0  0  0  0  0  0
   -1.0437   10.0068   18.4209 H   0  0  0  0  0  0  0  0  0  0  0  0
    0.6034   10.4816   18.0242 H   0  0  0  0  0  0  0  0  0  0  0  0
    0.1600   12.6761   19.3983 H   0  0  0  0  0  0  0  0  0  0  0  0
    0.4801   11.2002   20.2471 H   0  0  0  0  0  0  0  0  0  0  0  0
   -1.3816   12.2027   21.3370 H   0  0  0  0  0  0  0  0  0  0  0  0
   -1.9443   10.7523   20.5545 H   0  0  0  0  0  0  0  0  0  0  0  0
   -2.2459   13.5998   19.5303 H   0  0  0  0  0  0  0  0  0  0  0  0
   -3.4963   12.6625   20.3000 H   0  0  0  0  0  0  0  0  0  0  0  0
   -3.9370   12.6534   17.9703 H   0  0  0  0  0  0  0  0  0  0  0  0
   -3.3952   11.0223   18.3271 H   0  0  0  0  0  0  0  0  0  0  0  0
  2  1  1  0
  3  2  1  0
  4  3  2  0
  5  4  1  0
  6  5  2  0
  7  6  1  0
  8  7  2  0
  9  4  1  0
  9  8  1  0
 10  2  1  0
 10  9  1  0
 11 10  2  0
 12  6  1  0
 13 12  1  0
 14 13  1  0
 15 14  1  0
 16 15  1  0
 17 16  1  0
 18 17  2  0
 19 18  1  0
 20 19  2  0
 21 12  1  0
 21 16  2  0
 21 20  1  0
 22 18  1  0
 23 22  2  0
 24 23  1  0
 25 24  2  0
 26 25  1  0
 27 26  1  0
 28 27  1  0
 29 28  1  0
 30 29  1  0
 31 22  1  0
 31 25  1  0
 31 30  1  0
 32  1  1  0
 33  1  1  0
 34  1  1  0
 35  5  1  0
 36  7  1  0
 37  8  1  0
 38 13  1  0
 39 13  1  0
 40 14  1  0
 41 14  1  0
 42 17  1  0
 43 19  1  0
 44 20  1  0
 45 26  1  0
 46 26  1  0
 47 27  1  0
 48 27  1  0
 49 28  1  0
 50 28  1  0
 51 29  1  0
 52 29  1  0
 53 30  1  0
 54 30  1  0
M  END
>  <ID>  (6) 
compound_41

>  <series>  (6) 
4_5

>  <pKi>  (6) 
9.8786

>  <FEP_pKi>  (6) 
9.3575

>  <smiles>  (6) 
Cn1nc2cc(N3CCOc4cc(-c5nnc6n5CCCCC6)ccc43)ccn2c1=O

$$$$
compound_26
     RDKit          3D

 51 55  0  0  1  0  0  0  0  0999 V2000
   -9.7543   14.4856    7.2897 C   0  0  0  0  0  0  0  0  0  0  0  0
   -9.1577   14.2510    8.5975 N   0  0  0  0  0  0  0  0  0  0  0  0
   -8.6447   15.2954    9.3042 N   0  0  0  0  0  0  0  0  0  0  0  0
   -8.2100   14.7309   10.3804 C   0  0  0  0  0  0  0  0  0  0  0  0
   -7.5361   15.2415   11.5591 C   0  0  0  0  0  0  0  0  0  0  0  0
   -7.1431   14.4080   12.5609 C   0  0  0  0  0  0  0  0  0  0  0  0
   -7.4052   12.9753   12.4417 C   0  0  0  0  0  0  0  0  0  0  0  0
   -8.0433   12.4897   11.3653 C   0  0  0  0  0  0  0  0  0  0  0  0
   -8.4381   13.3684   10.3581 N   0  0  0  0  0  0  0  0  0  0  0  0
   -9.0436   13.0715    9.2191 C   0  0  0  0  0  0  0  0  0  0  0  0
   -9.4110   11.9655    8.8244 O   0  0  0  0  0  0  0  0  0  0  0  0
   -6.4703   14.9302   13.7470 C   0  0  0  0  0  0  0  0  0  0  0  0
   -6.9531   16.0335   14.3415 C   0  0  0  0  0  0  0  0  0  0  0  0
   -6.2660   16.7036   15.5057 C   0  0  0  0  0  0  0  0  0  0  0  0
   -5.3834   15.8521   16.2368 O   0  0  0  0  0  0  0  0  0  0  0  0
   -4.7220   14.8706   15.5356 C   0  0  0  0  0  0  0  0  0  0  0  0
   -5.2053   14.3848   14.2927 C   0  0  0  0  0  0  0  0  0  0  0  0
   -4.4617   13.3910   13.6201 C   0  0  0  0  0  0  0  0  0  0  0  0
   -3.3038   12.8388   14.1970 C   0  0  0  0  0  0  0  0  0  0  0  0
   -2.8681   13.2727   15.4652 C   0  0  0  0  0  0  0  0  0  0  0  0
   -3.5664   14.3106   16.1160 C   0  0  0  0  0  0  0  0  0  0  0  0
   -1.6348   12.6656   16.0672 C   0  0  0  0  0  0  0  0  0  0  0  0
   -0.5731   12.8003   15.4562 O   0  0  0  0  0  0  0  0  0  0  0  0
   -1.7372   11.9591   17.2220 N   0  0  0  0  0  0  0  0  0  0  0  0
   -2.9385   11.7953   18.0495 C   0  0  0  0  0  0  0  0  0  0  0  0
   -2.7147   12.5297   19.3854 C   0  0  0  0  0  0  0  0  0  0  0  0
   -1.4396   12.0184   20.0892 C   0  0  0  0  0  0  0  0  0  0  0  0
   -1.1655   12.7995   21.1331 F   0  0  0  0  0  0  0  0  0  0  0  0
   -1.6694   10.7885   20.5478 F   0  0  0  0  0  0  0  0  0  0  0  0
   -0.2224   11.9710   19.1411 C   0  0  0  0  0  0  0  0  0  0  0  0
   -0.5924   11.2649   17.8246 C   0  0  0  0  0  0  0  0  0  0  0  0
  -10.7563   14.0575    7.2429 H   0  0  0  0  0  0  0  0  0  0  0  0
   -9.8335   15.5516    7.0678 H   0  0  0  0  0  0  0  0  0  0  0  0
   -9.1547   14.0171    6.5099 H   0  0  0  0  0  0  0  0  0  0  0  0
   -7.3319   16.2984   11.6438 H   0  0  0  0  0  0  0  0  0  0  0  0
   -7.0980   12.3023   13.2280 H   0  0  0  0  0  0  0  0  0  0  0  0
   -8.2856   11.4488   11.2074 H   0  0  0  0  0  0  0  0  0  0  0  0
   -7.8406   16.5219   13.9688 H   0  0  0  0  0  0  0  0  0  0  0  0
   -7.0139   17.1142   16.1825 H   0  0  0  0  0  0  0  0  0  0  0  0
   -5.7044   17.5311   15.0827 H   0  0  0  0  0  0  0  0  0  0  0  0
   -4.7733   13.0356   12.6517 H   0  0  0  0  0  0  0  0  0  0  0  0
   -2.7614   12.0701   13.6655 H   0  0  0  0  0  0  0  0  0  0  0  0
   -3.2229   14.6718   17.0754 H   0  0  0  0  0  0  0  0  0  0  0  0
   -3.1163   10.7345   18.2289 H   0  0  0  0  0  0  0  0  0  0  0  0
   -3.8422   12.1526   17.5685 H   0  0  0  0  0  0  0  0  0  0  0  0
   -3.5820   12.4048   20.0339 H   0  0  0  0  0  0  0  0  0  0  0  0
   -2.6288   13.6003   19.1984 H   0  0  0  0  0  0  0  0  0  0  0  0
    0.1226   12.9821   18.9204 H   0  0  0  0  0  0  0  0  0  0  0  0
    0.6142   11.4622   19.6229 H   0  0  0  0  0  0  0  0  0  0  0  0
   -0.8739   10.2294   18.0220 H   0  0  0  0  0  0  0  0  0  0  0  0
    0.2682   11.2017   17.1601 H   0  0  0  0  0  0  0  0  0  0  0  0
  2  1  1  0
  3  2  1  0
  4  3  2  0
  5  4  1  0
  6  5  2  0
  7  6  1  0
  8  7  2  0
  9  4  1  0
  9  8  1  0
 10  2  1  0
 10  9  1  0
 11 10  2  0
 12  6  1  0
 13 12  2  0
 14 13  1  0
 15 14  1  0
 16 15  1  0
 17 12  1  0
 17 16  2  0
 18 17  1  0
 19 18  2  0
 20 19  1  0
 21 16  1  0
 21 20  2  0
 22 20  1  0
 23 22  2  0
 24 22  1  0
 25 24  1  0
 26 25  1  0
 27 26  1  0
 28 27  1  0
 29 27  1  0
 30 27  1  0
 31 24  1  0
 31 30  1  0
 32  1  1  0
 33  1  1  0
 34  1  1  0
 35  5  1  0
 36  7  1  0
 37  8  1  0
 38 13  1  0
 39 14  1  0
 40 14  1  0
 41 18  1  0
 42 19  1  0
 43 21  1  0
 44 25  1  0
 45 25  1  0
 46 26  1  0
 47 26  1  0
 48 30  1  0
 49 30  1  0
 50 31  1  0
 51 31  1  0
M  END
>  <ID>  (7) 
compound_26

>  <series>  (7) 
2

>  <pKi>  (7) 
10.0781

>  <FEP_pKi>  (7) 
8.9614

>  <smiles>  (7) 
Cn1nc2cc(C3=CCOc4cc(C(=O)N5CCC(F)(F)CC5)ccc43)ccn2c1=O

$$$$
compound_13
     RDKit          3D

 46 49  0  0  1  0  0  0  0  0999 V2000
   -9.7212   14.4298    7.6537 C   0  0  0  0  0  0  0  0  0  0  0  0
   -9.1471   14.2364    8.9780 N   0  0  0  0  0  0  0  0  0  0  0  0
   -8.5858   15.2966    9.6196 N   0  0  0  0  0  0  0  0  0  0  0  0
   -8.1104   14.7704   10.6966 C   0  0  0  0  0  0  0  0  0  0  0  0
   -7.3351   15.3159   11.7982 C   0  0  0  0  0  0  0  0  0  0  0  0
   -6.8632   14.5090   12.7782 C   0  0  0  0  0  0  0  0  0  0  0  0
   -6.1338   15.0922   13.7938 O   0  0  0  0  0  0  0  0  0  0  0  0
   -5.0138   14.4885   14.3357 C   0  0  0  0  0  0  0  0  0  0  0  0
   -4.5425   14.9346   15.5899 C   0  0  0  0  0  0  0  0  0  0  0  0
   -3.3899   14.3589   16.1722 C   0  0  0  0  0  0  0  0  0  0  0  0
   -2.7218   13.3005   15.5155 C   0  0  0  0  0  0  0  0  0  0  0  0
   -3.1582   12.8837   14.2498 C   0  0  0  0  0  0  0  0  0  0  0  0
   -4.2780   13.4847   13.6700 C   0  0  0  0  0  0  0  0  0  0  0  0
   -1.5144   12.6358   16.0899 C   0  0  0  0  0  0  0  0  0  0  0  0
   -0.4818   12.6703   15.4206 O   0  0  0  0  0  0  0  0  0  0  0  0
   -1.6273   11.9670   17.2621 N   0  0  0  0  0  0  0  0  0  0  0  0
   -0.4904   11.2730   17.8778 C   0  0  0  0  0  0  0  0  0  0  0  0
   -0.1978   11.9129   19.2472 C   0  0  0  0  0  0  0  0  0  0  0  0
   -1.4556   11.9267   20.1388 C   0  0  0  0  0  0  0  0  0  0  0  0
   -1.7144   10.6790   20.5292 F   0  0  0  0  0  0  0  0  0  0  0  0
   -1.2230   12.6619   21.2254 F   0  0  0  0  0  0  0  0  0  0  0  0
   -2.6914   12.4787   19.4014 C   0  0  0  0  0  0  0  0  0  0  0  0
   -2.8630   11.7882   18.0367 C   0  0  0  0  0  0  0  0  0  0  0  0
   -7.1915   13.0817   12.7682 C   0  0  0  0  0  0  0  0  0  0  0  0
   -7.9324   12.5697   11.7690 C   0  0  0  0  0  0  0  0  0  0  0  0
   -8.3791   13.4111   10.7482 N   0  0  0  0  0  0  0  0  0  0  0  0
   -9.0400   13.0785    9.6425 C   0  0  0  0  0  0  0  0  0  0  0  0
   -9.4399   11.9608    9.2955 O   0  0  0  0  0  0  0  0  0  0  0  0
  -10.7296   14.0172    7.6032 H   0  0  0  0  0  0  0  0  0  0  0  0
   -9.7745   15.4879    7.3938 H   0  0  0  0  0  0  0  0  0  0  0  0
   -9.1069   13.9347    6.9016 H   0  0  0  0  0  0  0  0  0  0  0  0
   -7.0978   16.3673   11.8470 H   0  0  0  0  0  0  0  0  0  0  0  0
   -5.0652   15.7255   16.1080 H   0  0  0  0  0  0  0  0  0  0  0  0
   -3.0412   14.7185   17.1304 H   0  0  0  0  0  0  0  0  0  0  0  0
   -2.6350   12.1045   13.7126 H   0  0  0  0  0  0  0  0  0  0  0  0
   -4.5667   13.1602   12.6832 H   0  0  0  0  0  0  0  0  0  0  0  0
   -0.7396   10.2171   17.9799 H   0  0  0  0  0  0  0  0  0  0  0  0
    0.4112   11.2992   17.2657 H   0  0  0  0  0  0  0  0  0  0  0  0
    0.6114   11.3817   19.7489 H   0  0  0  0  0  0  0  0  0  0  0  0
    0.1544   12.9331   19.0921 H   0  0  0  0  0  0  0  0  0  0  0  0
   -3.5849   12.3401   20.0112 H   0  0  0  0  0  0  0  0  0  0  0  0
   -2.5837   13.5543   19.2544 H   0  0  0  0  0  0  0  0  0  0  0  0
   -3.7577   12.1560   17.5412 H   0  0  0  0  0  0  0  0  0  0  0  0
   -3.0380   10.7236   18.1806 H   0  0  0  0  0  0  0  0  0  0  0  0
   -6.8555   12.4381   13.5672 H   0  0  0  0  0  0  0  0  0  0  0  0
   -8.2301   11.5339   11.6895 H   0  0  0  0  0  0  0  0  0  0  0  0
  2  1  1  0
  3  2  1  0
  4  3  2  0
  5  4  1  0
  6  5  2  0
  7  6  1  0
  8  7  1  0
  9  8  1  0
 10  9  2  0
 11 10  1  0
 12 11  2  0
 13  8  2  0
 13 12  1  0
 14 11  1  0
 15 14  2  0
 16 14  1  0
 17 16  1  0
 18 17  1  0
 19 18  1  0
 20 19  1  0
 21 19  1  0
 22 19  1  0
 23 16  1  0
 23 22  1  0
 24  6  1  0
 25 24  2  0
 26  4  1  0
 26 25  1  0
 27  2  1  0
 27 26  1  0
 28 27  2  0
 29  1  1  0
 30  1  1  0
 31  1  1  0
 32  5  1  0
 33  9  1  0
 34 10  1  0
 35 12  1  0
 36 13  1  0
 37 17  1  0
 38 17  1  0
 39 18  1  0
 40 18  1  0
 41 22  1  0
 42 22  1  0
 43 23  1  0
 44 23  1  0
 45 24  1  0
 46 25  1  0
M  END
>  <ID>  (8) 
compound_13

>  <series>  (8) 
1

>  <pKi>  (8) 
7.5881

>  <FEP_pKi>  (8) 
6.5375

>  <smiles>  (8) 
Cn1nc2cc(Oc3ccc(C(=O)N4CCC(F)(F)CC4)cc3)ccn2c1=O

$$$$
compound_25
     RDKit          3D

 54 58  0  0  1  0  0  0  0  0999 V2000
  -10.0237   13.3103    7.5788 C   0  0  0  0  0  0  0  0  0  0  0  0
   -9.2780   13.2964    8.8300 N   0  0  0  0  0  0  0  0  0  0  0  0
   -8.7854   14.4678    9.3174 N   0  0  0  0  0  0  0  0  0  0  0  0
   -8.2442   14.1172   10.4351 C   0  0  0  0  0  0  0  0  0  0  0  0
   -7.5697   14.8632   11.4824 C   0  0  0  0  0  0  0  0  0  0  0  0
   -7.0858   14.2475   12.5993 C   0  0  0  0  0  0  0  0  0  0  0  0
   -7.2481   12.8008   12.7218 C   0  0  0  0  0  0  0  0  0  0  0  0
   -7.8863   12.0985   11.7699 C   0  0  0  0  0  0  0  0  0  0  0  0
   -8.3722   12.7579   10.6443 N   0  0  0  0  0  0  0  0  0  0  0  0
   -9.0429   12.2413    9.6210 C   0  0  0  0  0  0  0  0  0  0  0  0
   -9.3580   11.0658    9.4354 O   0  0  0  0  0  0  0  0  0  0  0  0
   -6.5363   15.0502   13.7274 C   0  0  0  0  0  0  0  0  0  0  0  0
   -7.2112   16.2628   14.0125 C   0  0  0  0  0  0  0  0  0  0  0  0
   -6.8471   17.0576   15.1086 C   0  0  0  0  0  0  0  0  0  0  0  0
   -5.7842   16.6608   15.9283 C   0  0  0  0  0  0  0  0  0  0  0  0
   -5.0603   15.4885   15.6428 C   0  0  0  0  0  0  0  0  0  0  0  0
   -5.4352   14.6585   14.5553 C   0  0  0  0  0  0  0  0  0  0  0  0
   -4.6234   13.3855   14.3243 C   0  0  0  0  0  0  0  0  0  0  0  0
   -3.1900   13.4661   14.8780 C   0  0  0  0  0  0  0  0  0  0  0  0
   -3.1671   13.9121   16.2761 N   0  0  0  0  0  0  0  0  0  0  0  0
   -3.8649   15.1765   16.5312 C   0  0  0  0  0  0  0  0  0  0  0  0
   -2.1259   13.6068   17.0869 C   0  0  0  0  0  0  0  0  0  0  0  0
   -1.4434   14.4729   17.6220 O   0  0  0  0  0  0  0  0  0  0  0  0
   -1.9063   12.2956   17.3411 N   0  0  0  0  0  0  0  0  0  0  0  0
   -3.0051   11.4409   17.7588 C   0  0  0  0  0  0  0  0  0  0  0  0
   -3.2770   11.7102   19.2526 C   0  0  0  0  0  0  0  0  0  0  0  0
   -2.0196   11.3191   20.0594 C   0  0  0  0  0  0  0  0  0  0  0  0
   -2.1690   11.6800   21.3273 F   0  0  0  0  0  0  0  0  0  0  0  0
   -1.8436   10.0004   20.0227 F   0  0  0  0  0  0  0  0  0  0  0  0
   -0.7463   11.9753   19.5033 C   0  0  0  0  0  0  0  0  0  0  0  0
   -0.6616   11.8415   17.9697 C   0  0  0  0  0  0  0  0  0  0  0  0
  -10.2395   12.3015    7.2235 H   0  0  0  0  0  0  0  0  0  0  0  0
   -9.4567   13.8247    6.8037 H   0  0  0  0  0  0  0  0  0  0  0  0
  -10.9730   13.8301    7.7142 H   0  0  0  0  0  0  0  0  0  0  0  0
   -7.4714   15.9347   11.3870 H   0  0  0  0  0  0  0  0  0  0  0  0
   -6.9112   12.2862   13.6059 H   0  0  0  0  0  0  0  0  0  0  0  0
   -8.0743   11.0351   11.8089 H   0  0  0  0  0  0  0  0  0  0  0  0
   -8.0610   16.5803   13.4266 H   0  0  0  0  0  0  0  0  0  0  0  0
   -7.3906   17.9652   15.3279 H   0  0  0  0  0  0  0  0  0  0  0  0
   -5.5048   17.2764   16.7706 H   0  0  0  0  0  0  0  0  0  0  0  0
   -5.1329   12.5609   14.8227 H   0  0  0  0  0  0  0  0  0  0  0  0
   -4.5779   13.1548   13.2600 H   0  0  0  0  0  0  0  0  0  0  0  0
   -2.7014   12.4979   14.7563 H   0  0  0  0  0  0  0  0  0  0  0  0
   -2.6147   14.1767   14.2832 H   0  0  0  0  0  0  0  0  0  0  0  0
   -3.1571   16.0000   16.4265 H   0  0  0  0  0  0  0  0  0  0  0  0
   -4.2049   15.1884   17.5694 H   0  0  0  0  0  0  0  0  0  0  0  0
   -3.8435   11.6049   17.1067 H   0  0  0  0  0  0  0  0  0  0  0  0
   -2.7380   10.4003   17.6229 H   0  0  0  0  0  0  0  0  0  0  0  0
   -3.5014   12.7662   19.4127 H   0  0  0  0  0  0  0  0  0  0  0  0
   -4.1594   11.1825   19.6027 H   0  0  0  0  0  0  0  0  0  0  0  0
   -0.7468   13.0271   19.7784 H   0  0  0  0  0  0  0  0  0  0  0  0
    0.1396   11.5446   19.9721 H   0  0  0  0  0  0  0  0  0  0  0  0
   -0.4460   10.8111   17.6841 H   0  0  0  0  0  0  0  0  0  0  0  0
    0.1568   12.4464   17.6117 H   0  0  0  0  0  0  0  0  0  0  0  0
  2  1  1  0
  3  2  1  0
  4  3  2  0
  5  4  1  0
  6  5  2  0
  7  6  1  0
  8  7  2  0
  9  4  1  0
  9  8  1  0
 10  2  1  0
 10  9  1  0
 11 10  2  0
 12  6  1  0
 13 12  1  0
 14 13  2  0
 15 14  1  0
 16 15  2  0
 17 12  2  0
 17 16  1  0
 18 17  1  0
 19 18  1  0
 20 19  1  0
 21 16  1  0
 21 20  1  0
 22 20  1  0
 23 22  2  0
 24 22  1  0
 25 24  1  0
 26 25  1  0
 27 26  1  0
 28 27  1  0
 29 27  1  0
 30 27  1  0
 31 24  1  0
 31 30  1  0
 32  1  1  0
 33  1  1  0
 34  1  1  0
 35  5  1  0
 36  7  1  0
 37  8  1  0
 38 13  1  0
 39 14  1  0
 40 15  1  0
 41 18  1  0
 42 18  1  0
 43 19  1  0
 44 19  1  0
 45 21  1  0
 46 21  1  0
 47 25  1  0
 48 25  1  0
 49 26  1  0
 50 26  1  0
 51 30  1  0
 52 30  1  0
 53 31  1  0
 54 31  1  0
M  END
>  <ID>  (9) 
compound_25

>  <series>  (9) 
2

>  <pKi>  (9) 
7.6414

>  <FEP_pKi>  (9) 
7.9692

>  <smiles>  (9) 
Cn1nc2cc(-c3cccc4c3CCN(C(=O)N3CCC(F)(F)CC3)C4)ccn2c1=O

$$$$
compound_22
     RDKit          3D

 46 49  0  0  1  0  0  0  0  0999 V2000
   -5.4595   16.5786   16.9243 C   0  0  0  0  0  0  0  0  0  0  0  0
   -5.4711   15.8019   15.7029 N   0  0  0  0  0  0  0  0  0  0  0  0
   -6.4037   15.8568   14.7319 C   0  0  0  0  0  0  0  0  0  0  0  0
   -7.3645   16.6133   14.7067 O   0  0  0  0  0  0  0  0  0  0  0  0
   -6.1028   14.9219   13.8126 N   0  0  0  0  0  0  0  0  0  0  0  0
   -4.9443   14.2416   14.2035 C   0  0  0  0  0  0  0  0  0  0  0  0
   -4.5516   14.7996   15.4034 C   0  0  0  0  0  0  0  0  0  0  0  0
   -3.4196   14.3331   16.0921 C   0  0  0  0  0  0  0  0  0  0  0  0
   -2.7193   13.2697   15.4773 C   0  0  0  0  0  0  0  0  0  0  0  0
   -3.1680   12.8071   14.2227 C   0  0  0  0  0  0  0  0  0  0  0  0
   -4.2653   13.2640   13.5875 N   0  0  0  0  0  0  0  0  0  0  0  0
   -1.5118   12.6283   16.0818 C   0  0  0  0  0  0  0  0  0  0  0  0
   -0.4544   12.7008   15.4561 O   0  0  0  0  0  0  0  0  0  0  0  0
   -1.6331   11.9535   17.2456 N   0  0  0  0  0  0  0  0  0  0  0  0
   -2.8701   11.7654   18.0060 C   0  0  0  0  0  0  0  0  0  0  0  0
   -2.7103   12.4392   19.3757 C   0  0  0  0  0  0  0  0  0  0  0  0
   -1.4756   11.9096   20.1211 C   0  0  0  0  0  0  0  0  0  0  0  0
   -1.2608   12.6282   21.2151 F   0  0  0  0  0  0  0  0  0  0  0  0
   -0.2218   11.9251   19.2346 C   0  0  0  0  0  0  0  0  0  0  0  0
   -0.5063   11.2677   17.8788 C   0  0  0  0  0  0  0  0  0  0  0  0
   -6.9059   14.4771   12.7236 C   0  0  0  0  0  0  0  0  0  0  0  0
   -7.2341   13.1150   12.5785 C   0  0  0  0  0  0  0  0  0  0  0  0
   -7.9605   12.6730   11.4640 C   0  0  0  0  0  0  0  0  0  0  0  0
   -8.3603   13.5928   10.4824 C   0  0  0  0  0  0  0  0  0  0  0  0
   -8.0745   14.9528   10.6335 C   0  0  0  0  0  0  0  0  0  0  0  0
   -7.3575   15.3924   11.7549 C   0  0  0  0  0  0  0  0  0  0  0  0
   -9.0580   13.1583    9.3028 C   0  0  0  0  0  0  0  0  0  0  0  0
   -9.6285   12.8132    8.3621 N   0  0  0  0  0  0  0  0  0  0  0  0
   -4.4376   16.7994   17.2222 H   0  0  0  0  0  0  0  0  0  0  0  0
   -5.9870   17.5281   16.8078 H   0  0  0  0  0  0  0  0  0  0  0  0
   -5.9378   16.0168   17.7282 H   0  0  0  0  0  0  0  0  0  0  0  0
   -3.1108   14.7523   17.0370 H   0  0  0  0  0  0  0  0  0  0  0  0
   -2.6506   12.0067   13.7153 H   0  0  0  0  0  0  0  0  0  0  0  0
   -3.7644   12.1280   17.5011 H   0  0  0  0  0  0  0  0  0  0  0  0
   -3.0442   10.6976   18.1353 H   0  0  0  0  0  0  0  0  0  0  0  0
   -2.6247   13.5177   19.2387 H   0  0  0  0  0  0  0  0  0  0  0  0
   -3.6061   12.2786   19.9792 H   0  0  0  0  0  0  0  0  0  0  0  0
   -1.6685   10.8899   20.4610 H   0  0  0  0  0  0  0  0  0  0  0  0
    0.5928   11.4031   19.7373 H   0  0  0  0  0  0  0  0  0  0  0  0
    0.1221   12.9505   19.0778 H   0  0  0  0  0  0  0  0  0  0  0  0
   -0.7693   10.2183   18.0183 H   0  0  0  0  0  0  0  0  0  0  0  0
    0.3949   11.2457   17.2646 H   0  0  0  0  0  0  0  0  0  0  0  0
   -6.9115   12.3977   13.3183 H   0  0  0  0  0  0  0  0  0  0  0  0
   -8.1908   11.6263   11.3592 H   0  0  0  0  0  0  0  0  0  0  0  0
   -8.3943   15.6695    9.8942 H   0  0  0  0  0  0  0  0  0  0  0  0
   -7.1297   16.4433   11.8540 H   0  0  0  0  0  0  0  0  0  0  0  0
  2  1  1  0
  3  2  1  0
  4  3  2  0
  5  3  1  0
  6  5  1  0
  7  2  1  0
  7  6  2  0
  8  7  1  0
  9  8  2  0
 10  9  1  0
 11  6  1  0
 11 10  2  0
 12  9  1  0
 13 12  2  0
 14 12  1  0
 15 14  1  0
 16 15  1  0
 17 16  1  0
 18 17  1  0
 19 17  1  0
 20 14  1  0
 20 19  1  0
 21  5  1  0
 22 21  1  0
 23 22  2  0
 24 23  1  0
 25 24  2  0
 26 21  2  0
 26 25  1  0
 27 24  1  0
 28 27  3  0
 29  1  1  0
 30  1  1  0
 31  1  1  0
 32  8  1  0
 33 10  1  0
 34 15  1  0
 35 15  1  0
 36 16  1  0
 37 16  1  0
 38 17  1  0
 39 19  1  0
 40 19  1  0
 41 20  1  0
 42 20  1  0
 43 22  1  0
 44 23  1  0
 45 25  1  0
 46 26  1  0
M  END
>  <ID>  (10) 
compound_22

>  <series>  (10) 
2

>  <pKi>  (10) 
6.1281

>  <FEP_pKi>  (10) 
7.4194

>  <smiles>  (10) 
Cn1c(=O)n(-c2ccc(C#N)cc2)c2ncc(C(=O)N3CCC(F)CC3)cc21

$$$$
compound_12
     RDKit          3D

 50 53  0  0  1  0  0  0  0  0999 V2000
   -6.6552   16.3589   14.3472 C   0  0  0  0  0  0  0  0  0  0  0  0
   -6.2199   15.0506   13.8397 N   0  0  0  0  0  0  0  0  0  0  0  0
   -5.0257   14.5034   14.3897 C   0  0  0  0  0  0  0  0  0  0  0  0
   -4.4888   14.9080   15.6459 C   0  0  0  0  0  0  0  0  0  0  0  0
   -3.3293   14.3206   16.1705 C   0  0  0  0  0  0  0  0  0  0  0  0
   -2.7067   13.2654   15.4870 C   0  0  0  0  0  0  0  0  0  0  0  0
   -3.1804   12.8771   14.2224 C   0  0  0  0  0  0  0  0  0  0  0  0
   -4.3115   13.5063   13.6771 C   0  0  0  0  0  0  0  0  0  0  0  0
   -1.5057   12.6022   16.0617 C   0  0  0  0  0  0  0  0  0  0  0  0
   -0.4685   12.6654   15.4093 O   0  0  0  0  0  0  0  0  0  0  0  0
   -1.6217   11.9449   17.2424 N   0  0  0  0  0  0  0  0  0  0  0  0
   -0.4818   11.2722   17.8712 C   0  0  0  0  0  0  0  0  0  0  0  0
   -0.2078   11.9269   19.2377 C   0  0  0  0  0  0  0  0  0  0  0  0
   -1.4687   11.9163   20.1225 C   0  0  0  0  0  0  0  0  0  0  0  0
   -1.7142   10.6631   20.5047 F   0  0  0  0  0  0  0  0  0  0  0  0
   -1.2510   12.6524   21.2074 F   0  0  0  0  0  0  0  0  0  0  0  0
   -2.7069   12.4534   19.3845 C   0  0  0  0  0  0  0  0  0  0  0  0
   -2.8610   11.7688   18.0161 C   0  0  0  0  0  0  0  0  0  0  0  0
   -6.9419   14.4822   12.7775 C   0  0  0  0  0  0  0  0  0  0  0  0
   -7.4225   15.2688   11.7747 C   0  0  0  0  0  0  0  0  0  0  0  0
   -8.1488   14.7217   10.6460 C   0  0  0  0  0  0  0  0  0  0  0  0
   -8.6380   15.2564    9.5771 N   0  0  0  0  0  0  0  0  0  0  0  0
   -9.1636   14.1928    8.9165 N   0  0  0  0  0  0  0  0  0  0  0  0
   -9.8444   14.3666    7.6400 C   0  0  0  0  0  0  0  0  0  0  0  0
   -9.0357   13.0408    9.5722 C   0  0  0  0  0  0  0  0  0  0  0  0
   -9.4704   11.9485    9.2189 O   0  0  0  0  0  0  0  0  0  0  0  0
   -8.3519   13.3548   10.6652 N   0  0  0  0  0  0  0  0  0  0  0  0
   -7.8782   12.5121   11.6748 C   0  0  0  0  0  0  0  0  0  0  0  0
   -7.2017   13.0384   12.7146 C   0  0  0  0  0  0  0  0  0  0  0  0
   -6.4934   17.1316   13.5972 H   0  0  0  0  0  0  0  0  0  0  0  0
   -7.7262   16.3201   14.5483 H   0  0  0  0  0  0  0  0  0  0  0  0
   -6.1896   16.7317   15.2530 H   0  0  0  0  0  0  0  0  0  0  0  0
   -4.9490   15.6462   16.2815 H   0  0  0  0  0  0  0  0  0  0  0  0
   -2.9385   14.6535   17.1210 H   0  0  0  0  0  0  0  0  0  0  0  0
   -2.6824   12.0937   13.6645 H   0  0  0  0  0  0  0  0  0  0  0  0
   -4.6269   13.1807   12.6985 H   0  0  0  0  0  0  0  0  0  0  0  0
   -0.7324   10.2184   17.9826 H   0  0  0  0  0  0  0  0  0  0  0  0
    0.4239   11.2966   17.2641 H   0  0  0  0  0  0  0  0  0  0  0  0
    0.6110   11.4187   19.7471 H   0  0  0  0  0  0  0  0  0  0  0  0
    0.1205   12.9549   19.0799 H   0  0  0  0  0  0  0  0  0  0  0  0
   -3.6019   12.2918   19.9853 H   0  0  0  0  0  0  0  0  0  0  0  0
   -2.6187   13.5326   19.2528 H   0  0  0  0  0  0  0  0  0  0  0  0
   -3.7526   12.1370   17.5156 H   0  0  0  0  0  0  0  0  0  0  0  0
   -3.0308   10.7026   18.1482 H   0  0  0  0  0  0  0  0  0  0  0  0
   -7.2288   16.3292   11.7959 H   0  0  0  0  0  0  0  0  0  0  0  0
   -9.3457   13.7967    6.8542 H   0  0  0  0  0  0  0  0  0  0  0  0
  -10.8671   13.9947    7.7153 H   0  0  0  0  0  0  0  0  0  0  0  0
   -9.8785   15.4121    7.3359 H   0  0  0  0  0  0  0  0  0  0  0  0
   -8.0821   11.4589   11.5452 H   0  0  0  0  0  0  0  0  0  0  0  0
   -6.8391   12.3834   13.4952 H   0  0  0  0  0  0  0  0  0  0  0  0
  2  1  1  0
  3  2  1  0
  4  3  1  0
  5  4  2  0
  6  5  1  0
  7  6  2  0
  8  3  2  0
  8  7  1  0
  9  6  1  0
 10  9  2  0
 11  9  1  0
 12 11  1  0
 13 12  1  0
 14 13  1  0
 15 14  1  0
 16 14  1  0
 17 14  1  0
 18 11  1  0
 18 17  1  0
 19  2  1  0
 20 19  2  0
 21 20  1  0
 22 21  2  0
 23 22  1  0
 24 23  1  0
 25 23  1  0
 26 25  2  0
 27 21  1  0
 27 25  1  0
 28 27  1  0
 29 19  1  0
 29 28  2  0
 30  1  1  0
 31  1  1  0
 32  1  1  0
 33  4  1  0
 34  5  1  0
 35  7  1  0
 36  8  1  0
 37 12  1  0
 38 12  1  0
 39 13  1  0
 40 13  1  0
 41 17  1  0
 42 17  1  0
 43 18  1  0
 44 18  1  0
 45 20  1  0
 46 24  1  0
 47 24  1  0
 48 24  1  0
 49 28  1  0
 50 29  1  0
M  END
>  <ID>  (11) 
compound_12

>  <series>  (11) 
1

>  <pKi>  (11) 
9.6831

>  <FEP_pKi>  (11) 
9.3260

>  <smiles>  (11) 
CN(c1ccc(C(=O)N2CCC(F)(F)CC2)cc1)c1ccn2c(=O)n(C)nc2c1

$$$$
compound_44
     RDKit          3D

 51 56  0  0  1  0  0  0  0  0999 V2000
   -9.8854   14.5364    7.5140 C   0  0  0  0  0  0  0  0  0  0  0  0
   -9.1898   14.3041    8.7667 N   0  0  0  0  0  0  0  0  0  0  0  0
   -8.6230   15.3413    9.4288 N   0  0  0  0  0  0  0  0  0  0  0  0
   -8.1410   14.7883   10.4856 C   0  0  0  0  0  0  0  0  0  0  0  0
   -7.4108   15.3047   11.6228 C   0  0  0  0  0  0  0  0  0  0  0  0
   -6.9754   14.4833   12.6090 C   0  0  0  0  0  0  0  0  0  0  0  0
   -7.2806   13.0675   12.5393 C   0  0  0  0  0  0  0  0  0  0  0  0
   -7.9759   12.5784   11.5026 C   0  0  0  0  0  0  0  0  0  0  0  0
   -8.3851   13.4357   10.4901 N   0  0  0  0  0  0  0  0  0  0  0  0
   -9.0499   13.1340    9.3866 C   0  0  0  0  0  0  0  0  0  0  0  0
   -9.4431   12.0339    9.0107 O   0  0  0  0  0  0  0  0  0  0  0  0
   -6.3268   15.0094   13.7109 N   0  0  0  0  0  0  0  0  0  0  0  0
   -7.0803   15.8995   14.5806 C   0  0  0  0  0  0  0  0  0  0  0  0
   -6.1682   16.8649   15.3125 C   0  0  0  0  0  0  0  0  0  0  0  0
   -5.3042   16.1262   16.1441 O   0  0  0  0  0  0  0  0  0  0  0  0
   -4.6845   15.0733   15.5270 C   0  0  0  0  0  0  0  0  0  0  0  0
   -3.6011   14.5104   16.1935 C   0  0  0  0  0  0  0  0  0  0  0  0
   -2.9746   13.3720   15.6850 C   0  0  0  0  0  0  0  0  0  0  0  0
   -3.3076   12.9044   14.4041 C   0  0  0  0  0  0  0  0  0  0  0  0
   -4.3779   13.4888   13.7109 C   0  0  0  0  0  0  0  0  0  0  0  0
   -5.1391   14.5210   14.3035 C   0  0  0  0  0  0  0  0  0  0  0  0
   -2.0322   12.6810   16.5248 C   0  0  0  0  0  0  0  0  0  0  0  0
   -0.8274   12.3466   16.0821 N   0  0  0  0  0  0  0  0  0  0  0  0
   -0.2435   11.6634   17.1223 N   0  0  0  0  0  0  0  0  0  0  0  0
   -1.0643   11.8064   18.1484 C   0  0  0  0  0  0  0  0  0  0  0  0
   -0.7672   11.4351   19.5538 C   0  0  0  0  0  0  0  0  0  0  0  0
   -1.6320   12.1535   20.5621 C   0  0  0  0  0  0  0  0  0  0  0  0
   -3.0891   12.0191   20.1345 C   0  0  0  0  0  0  0  0  0  0  0  0
   -3.3625   12.5258   18.7123 C   0  0  0  0  0  0  0  0  0  0  0  0
   -2.2353   12.3428   17.8195 N   0  0  0  0  0  0  0  0  0  0  0  0
  -10.9522   14.3351    7.6263 H   0  0  0  0  0  0  0  0  0  0  0  0
   -9.4879   13.8842    6.7369 H   0  0  0  0  0  0  0  0  0  0  0  0
   -9.7856   15.5658    7.1714 H   0  0  0  0  0  0  0  0  0  0  0  0
   -7.1976   16.3617   11.6865 H   0  0  0  0  0  0  0  0  0  0  0  0
   -6.9735   12.4107   13.3391 H   0  0  0  0  0  0  0  0  0  0  0  0
   -8.2639   11.5423   11.3954 H   0  0  0  0  0  0  0  0  0  0  0  0
   -7.8075   16.4714   14.0042 H   0  0  0  0  0  0  0  0  0  0  0  0
   -7.6665   15.2989   15.2769 H   0  0  0  0  0  0  0  0  0  0  0  0
   -5.5938   17.4559   14.5976 H   0  0  0  0  0  0  0  0  0  0  0  0
   -6.7543   17.5575   15.9174 H   0  0  0  0  0  0  0  0  0  0  0  0
   -3.2973   14.9297   17.1417 H   0  0  0  0  0  0  0  0  0  0  0  0
   -2.7931   12.0582   13.9763 H   0  0  0  0  0  0  0  0  0  0  0  0
   -4.6469   13.0832   12.7501 H   0  0  0  0  0  0  0  0  0  0  0  0
   -1.0350   10.4005   19.6631 H   0  0  0  0  0  0  0  0  0  0  0  0
    0.2936   11.5474   19.7702 H   0  0  0  0  0  0  0  0  0  0  0  0
   -1.3629   13.2017   20.6185 H   0  0  0  0  0  0  0  0  0  0  0  0
   -1.4765   11.7304   21.5539 H   0  0  0  0  0  0  0  0  0  0  0  0
   -3.7392   12.5549   20.8244 H   0  0  0  0  0  0  0  0  0  0  0  0
   -3.3751   10.9671   20.1945 H   0  0  0  0  0  0  0  0  0  0  0  0
   -3.6055   13.5856   18.7685 H   0  0  0  0  0  0  0  0  0  0  0  0
   -4.2315   12.0002   18.3189 H   0  0  0  0  0  0  0  0  0  0  0  0
  2  1  1  0
  3  2  1  0
  4  3  2  0
  5  4  1  0
  6  5  2  0
  7  6  1  0
  8  7  2  0
  9  4  1  0
  9  8  1  0
 10  2  1  0
 10  9  1  0
 11 10  2  0
 12  6  1  0
 13 12  1  0
 14 13  1  0
 15 14  1  0
 16 15  1  0
 17 16  1  0
 18 17  2  0
 19 18  1  0
 20 19  2  0
 21 12  1  0
 21 16  2  0
 21 20  1  0
 22 18  1  0
 23 22  2  0
 24 23  1  0
 25 24  2  0
 26 25  1  0
 27 26  1  0
 28 27  1  0
 29 28  1  0
 30 22  1  0
 30 25  1  0
 30 29  1  0
 31  1  1  0
 32  1  1  0
 33  1  1  0
 34  5  1  0
 35  7  1  0
 36  8  1  0
 37 13  1  0
 38 13  1  0
 39 14  1  0
 40 14  1  0
 41 17  1  0
 42 19  1  0
 43 20  1  0
 44 26  1  0
 45 26  1  0
 46 27  1  0
 47 27  1  0
 48 28  1  0
 49 28  1  0
 50 29  1  0
 51 29  1  0
M  END
>  <ID>  (12) 
compound_44

>  <series>  (12) 
4_5

>  <pKi>  (12) 
9.2283

>  <FEP_pKi>  (12) 
9.1344

>  <smiles>  (12) 
Cn1nc2cc(N3CCOc4cc(-c5nnc6n5CCCC6)ccc43)ccn2c1=O

$$$$
compound_24
     RDKit          3D

 43 46  0  0  1  0  0  0  0  0999 V2000
   -1.3260   12.4583   21.3561 F   0  0  0  0  0  0  0  0  0  0  0  0
   -1.5114   11.7840   20.2216 C   0  0  0  0  0  0  0  0  0  0  0  0
   -1.7677   10.5108   20.5239 F   0  0  0  0  0  0  0  0  0  0  0  0
   -0.2276   11.8355   19.3737 C   0  0  0  0  0  0  0  0  0  0  0  0
   -0.4749   11.2333   17.9800 C   0  0  0  0  0  0  0  0  0  0  0  0
   -1.5946   11.9445   17.3508 N   0  0  0  0  0  0  0  0  0  0  0  0
   -2.8496   11.7190   18.0861 C   0  0  0  0  0  0  0  0  0  0  0  0
   -2.7305   12.3589   19.4781 C   0  0  0  0  0  0  0  0  0  0  0  0
   -1.4506   12.6780   16.2214 C   0  0  0  0  0  0  0  0  0  0  0  0
   -0.3882   12.7929   15.6076 O   0  0  0  0  0  0  0  0  0  0  0  0
   -2.6550   13.3505   15.6516 C   0  0  0  0  0  0  0  0  0  0  0  0
   -3.3234   14.3282   16.3599 C   0  0  0  0  0  0  0  0  0  0  0  0
   -4.4357   14.8863   15.8139 N   0  0  0  0  0  0  0  0  0  0  0  0
   -5.2847   15.8208   16.3348 C   0  0  0  0  0  0  0  0  0  0  0  0
   -6.2724   16.0914   15.4792 N   0  0  0  0  0  0  0  0  0  0  0  0
   -6.0614   15.2945   14.3529 C   0  0  0  0  0  0  0  0  0  0  0  0
   -4.9149   14.5467   14.5308 C   0  0  0  0  0  0  0  0  0  0  0  0
   -4.1731   13.5960   13.7770 C   0  0  0  0  0  0  0  0  0  0  0  0
   -3.0762   12.9983   14.3454 C   0  0  0  0  0  0  0  0  0  0  0  0
   -6.9312   15.2835   13.1724 C   0  0  0  0  0  0  0  0  0  0  0  0
   -7.0943   14.1103   12.3998 C   0  0  0  0  0  0  0  0  0  0  0  0
   -7.8080   14.1459   11.1890 C   0  0  0  0  0  0  0  0  0  0  0  0
   -8.3885   15.3475   10.7498 C   0  0  0  0  0  0  0  0  0  0  0  0
   -8.3136   16.4965   11.5638 C   0  0  0  0  0  0  0  0  0  0  0  0
   -7.5811   16.4681   12.7674 C   0  0  0  0  0  0  0  0  0  0  0  0
   -9.0407   15.3988    9.4488 C   0  0  0  0  0  0  0  0  0  0  0  0
   -9.5565   15.4318    8.4140 N   0  0  0  0  0  0  0  0  0  0  0  0
    0.5761   11.3044   19.8836 H   0  0  0  0  0  0  0  0  0  0  0  0
    0.1076   12.8672   19.2678 H   0  0  0  0  0  0  0  0  0  0  0  0
   -0.7401   10.1777   18.0498 H   0  0  0  0  0  0  0  0  0  0  0  0
    0.4414   11.2536   17.3891 H   0  0  0  0  0  0  0  0  0  0  0  0
   -3.7406   12.0852   17.5812 H   0  0  0  0  0  0  0  0  0  0  0  0
   -3.0155   10.6454   18.1855 H   0  0  0  0  0  0  0  0  0  0  0  0
   -2.6321   13.4410   19.3818 H   0  0  0  0  0  0  0  0  0  0  0  0
   -3.6407   12.1855   20.0536 H   0  0  0  0  0  0  0  0  0  0  0  0
   -3.0407   14.6673   17.3529 H   0  0  0  0  0  0  0  0  0  0  0  0
   -5.1843   16.2638   17.3159 H   0  0  0  0  0  0  0  0  0  0  0  0
   -4.4771   13.3311   12.7714 H   0  0  0  0  0  0  0  0  0  0  0  0
   -2.5361   12.2435   13.7792 H   0  0  0  0  0  0  0  0  0  0  0  0
   -6.6507   13.1795   12.7124 H   0  0  0  0  0  0  0  0  0  0  0  0
   -7.8705   13.2592   10.5762 H   0  0  0  0  0  0  0  0  0  0  0  0
   -8.7699   17.4234   11.2385 H   0  0  0  0  0  0  0  0  0  0  0  0
   -7.4864   17.3736   13.3535 H   0  0  0  0  0  0  0  0  0  0  0  0
  2  1  1  0
  3  2  1  0
  4  2  1  0
  5  4  1  0
  6  5  1  0
  7  6  1  0
  8  2  1  0
  8  7  1  0
  9  6  1  0
 10  9  2  0
 11  9  1  0
 12 11  2  0
 13 12  1  0
 14 13  1  0
 15 14  2  0
 16 15  1  0
 17 13  1  0
 17 16  2  0
 18 17  1  0
 19 11  1  0
 19 18  2  0
 20 16  1  0
 21 20  1  0
 22 21  2  0
 23 22  1  0
 24 23  2  0
 25 20  2  0
 25 24  1  0
 26 23  1  0
 27 26  3  0
 28  4  1  0
 29  4  1  0
 30  5  1  0
 31  5  1  0
 32  7  1  0
 33  7  1  0
 34  8  1  0
 35  8  1  0
 36 12  1  0
 37 14  1  0
 38 18  1  0
 39 19  1  0
 40 21  1  0
 41 22  1  0
 42 24  1  0
 43 25  1  0
M  END
>  <ID>  (13) 
compound_24

>  <series>  (13) 
2

>  <pKi>  (13) 
7.2855

>  <FEP_pKi>  (13) 
6.4663

>  <smiles>  (13) 
N#Cc1ccc(-c2ncn3cc(C(=O)N4CCC(F)(F)CC4)ccc23)cc1

$$$$
compound_45
     RDKit          3D

 48 53  0  0  1  0  0  0  0  0999 V2000
   -9.9018   14.5299    7.5345 C   0  0  0  0  0  0  0  0  0  0  0  0
   -9.1958   14.3016    8.7832 N   0  0  0  0  0  0  0  0  0  0  0  0
   -8.6428   15.3432    9.4526 N   0  0  0  0  0  0  0  0  0  0  0  0
   -8.1450   14.7880   10.5034 C   0  0  0  0  0  0  0  0  0  0  0  0
   -7.4031   15.3045   11.6348 C   0  0  0  0  0  0  0  0  0  0  0  0
   -6.9431   14.4839   12.6129 C   0  0  0  0  0  0  0  0  0  0  0  0
   -7.2602   13.0674   12.5456 C   0  0  0  0  0  0  0  0  0  0  0  0
   -7.9660   12.5776   11.5134 C   0  0  0  0  0  0  0  0  0  0  0  0
   -8.3827   13.4336   10.5026 N   0  0  0  0  0  0  0  0  0  0  0  0
   -9.0446   13.1297    9.3960 C   0  0  0  0  0  0  0  0  0  0  0  0
   -9.4421   12.0297    9.0189 O   0  0  0  0  0  0  0  0  0  0  0  0
   -6.2731   15.0088   13.7087 N   0  0  0  0  0  0  0  0  0  0  0  0
   -7.0185   15.9195   14.5662 C   0  0  0  0  0  0  0  0  0  0  0  0
   -6.0964   16.8429   15.3322 C   0  0  0  0  0  0  0  0  0  0  0  0
   -5.2857   16.0677   16.1810 O   0  0  0  0  0  0  0  0  0  0  0  0
   -4.6624   15.0180   15.5629 C   0  0  0  0  0  0  0  0  0  0  0  0
   -3.5982   14.4310   16.2489 C   0  0  0  0  0  0  0  0  0  0  0  0
   -2.9442   13.3090   15.7334 C   0  0  0  0  0  0  0  0  0  0  0  0
   -3.2678   12.8670   14.4371 C   0  0  0  0  0  0  0  0  0  0  0  0
   -4.3319   13.4647   13.7338 C   0  0  0  0  0  0  0  0  0  0  0  0
   -5.0998   14.4961   14.3205 C   0  0  0  0  0  0  0  0  0  0  0  0
   -2.0049   12.5992   16.5843 C   0  0  0  0  0  0  0  0  0  0  0  0
   -0.8514   12.0944   16.1364 N   0  0  0  0  0  0  0  0  0  0  0  0
   -0.2434   11.4837   17.2251 N   0  0  0  0  0  0  0  0  0  0  0  0
   -1.0569   11.7311   18.2327 C   0  0  0  0  0  0  0  0  0  0  0  0
   -0.9910   11.4678   19.6830 C   0  0  0  0  0  0  0  0  0  0  0  0
   -2.2472   12.1683   20.2219 C   0  0  0  0  0  0  0  0  0  0  0  0
   -3.0662   12.6016   18.9853 C   0  0  0  0  0  0  0  0  0  0  0  0
   -2.1497   12.3709   17.9084 N   0  0  0  0  0  0  0  0  0  0  0  0
  -10.9672   14.3374    7.6637 H   0  0  0  0  0  0  0  0  0  0  0  0
   -9.5259   13.8664    6.7551 H   0  0  0  0  0  0  0  0  0  0  0  0
   -9.7809   15.5579    7.1910 H   0  0  0  0  0  0  0  0  0  0  0  0
   -7.1891   16.3616   11.7042 H   0  0  0  0  0  0  0  0  0  0  0  0
   -6.9460   12.4028   13.3371 H   0  0  0  0  0  0  0  0  0  0  0  0
   -8.2526   11.5418   11.3976 H   0  0  0  0  0  0  0  0  0  0  0  0
   -7.7056   16.5249   13.9746 H   0  0  0  0  0  0  0  0  0  0  0  0
   -7.6378   15.3384   15.2478 H   0  0  0  0  0  0  0  0  0  0  0  0
   -5.4800   17.4136   14.6366 H   0  0  0  0  0  0  0  0  0  0  0  0
   -6.6678   17.5525   15.9309 H   0  0  0  0  0  0  0  0  0  0  0  0
   -3.3245   14.8332   17.2125 H   0  0  0  0  0  0  0  0  0  0  0  0
   -2.7510   12.0226   14.0030 H   0  0  0  0  0  0  0  0  0  0  0  0
   -4.5861   13.0771   12.7611 H   0  0  0  0  0  0  0  0  0  0  0  0
   -1.0452   10.4003   19.8705 H   0  0  0  0  0  0  0  0  0  0  0  0
   -0.0693   11.8640   20.1105 H   0  0  0  0  0  0  0  0  0  0  0  0
   -1.9612   13.0498   20.7974 H   0  0  0  0  0  0  0  0  0  0  0  0
   -2.8215   11.5212   20.8856 H   0  0  0  0  0  0  0  0  0  0  0  0
   -3.3681   13.6460   19.0391 H   0  0  0  0  0  0  0  0  0  0  0  0
   -3.9442   11.9725   18.8420 H   0  0  0  0  0  0  0  0  0  0  0  0
  2  1  1  0
  3  2  1  0
  4  3  2  0
  5  4  1  0
  6  5  2  0
  7  6  1  0
  8  7  2  0
  9  4  1  0
  9  8  1  0
 10  2  1  0
 10  9  1  0
 11 10  2  0
 12  6  1  0
 13 12  1  0
 14 13  1  0
 15 14  1  0
 16 15  1  0
 17 16  1  0
 18 17  2  0
 19 18  1  0
 20 19  2  0
 21 12  1  0
 21 16  2  0
 21 20  1  0
 22 18  1  0
 23 22  2  0
 24 23  1  0
 25 24  2  0
 26 25  1  0
 27 26  1  0
 28 27  1  0
 29 22  1  0
 29 25  1  0
 29 28  1  0
 30  1  1  0
 31  1  1  0
 32  1  1  0
 33  5  1  0
 34  7  1  0
 35  8  1  0
 36 13  1  0
 37 13  1  0
 38 14  1  0
 39 14  1  0
 40 17  1  0
 41 19  1  0
 42 20  1  0
 43 26  1  0
 44 26  1  0
 45 27  1  0
 46 27  1  0
 47 28  1  0
 48 28  1  0
M  END
>  <ID>  (14) 
compound_45

>  <series>  (14) 
4_5

>  <pKi>  (14) 
7.5937

>  <FEP_pKi>  (14) 
8.5678

>  <smiles>  (14) 
Cn1nc2cc(N3CCOc4cc(-c5nnc6n5CCC6)ccc43)ccn2c1=O

$$$$
compound_46
     RDKit          3D

 54 59  0  0  1  0  0  0  0  0999 V2000
   -9.9338   14.5054    7.4819 C   0  0  0  0  0  0  0  0  0  0  0  0
   -9.2232   14.2867    8.7290 N   0  0  0  0  0  0  0  0  0  0  0  0
   -8.6694   15.3335    9.3886 N   0  0  0  0  0  0  0  0  0  0  0  0
   -8.1756   14.7865   10.4452 C   0  0  0  0  0  0  0  0  0  0  0  0
   -7.4550   15.3171   11.5814 C   0  0  0  0  0  0  0  0  0  0  0  0
   -7.0252   14.5129   12.5797 C   0  0  0  0  0  0  0  0  0  0  0  0
   -7.3186   13.0898   12.5243 C   0  0  0  0  0  0  0  0  0  0  0  0
   -7.9912   12.5841   11.4791 C   0  0  0  0  0  0  0  0  0  0  0  0
   -8.3999   13.4310   10.4533 N   0  0  0  0  0  0  0  0  0  0  0  0
   -9.0672   13.1187    9.3503 C   0  0  0  0  0  0  0  0  0  0  0  0
   -9.4604   12.0168    8.9788 O   0  0  0  0  0  0  0  0  0  0  0  0
   -6.3952   15.0628   13.6790 N   0  0  0  0  0  0  0  0  0  0  0  0
   -7.1763   15.9166   14.5606 C   0  0  0  0  0  0  0  0  0  0  0  0
   -6.2904   16.8584   15.3577 C   0  0  0  0  0  0  0  0  0  0  0  0
   -5.4237   16.1018   16.1709 O   0  0  0  0  0  0  0  0  0  0  0  0
   -4.7849   15.0802   15.5235 C   0  0  0  0  0  0  0  0  0  0  0  0
   -3.7004   14.4977   16.1739 C   0  0  0  0  0  0  0  0  0  0  0  0
   -3.0356   13.4156   15.5932 C   0  0  0  0  0  0  0  0  0  0  0  0
   -3.3694   12.9820   14.3047 C   0  0  0  0  0  0  0  0  0  0  0  0
   -4.4506   13.5705   13.6458 C   0  0  0  0  0  0  0  0  0  0  0  0
   -5.2158   14.5769   14.2726 C   0  0  0  0  0  0  0  0  0  0  0  0
   -2.0222   12.7363   16.3323 C   0  0  0  0  0  0  0  0  0  0  0  0
   -0.9076   12.3054   15.7545 N   0  0  0  0  0  0  0  0  0  0  0  0
   -0.2433   11.6066   16.7331 N   0  0  0  0  0  0  0  0  0  0  0  0
   -0.8719   11.9107   17.8402 C   0  0  0  0  0  0  0  0  0  0  0  0
   -0.5358   11.7997   19.2673 C   0  0  0  0  0  0  0  0  0  0  0  0
   -1.9166   12.0538   19.9052 C   0  0  0  0  0  0  0  0  0  0  0  0
   -2.8453   12.6108   18.7921 C   0  0  0  0  0  0  0  0  0  0  0  0
   -2.0322   12.4629   17.6444 N   0  0  0  0  0  0  0  0  0  0  0  0
   -2.4126   10.7312   20.4002 C   0  0  0  0  0  0  0  0  0  0  0  0
   -2.0103   12.9495   21.1115 C   0  0  0  0  0  0  0  0  0  0  0  0
   -9.4277   13.9937    6.6616 H   0  0  0  0  0  0  0  0  0  0  0  0
  -10.9507   14.1140    7.5500 H   0  0  0  0  0  0  0  0  0  0  0  0
   -9.9952   15.5688    7.2403 H   0  0  0  0  0  0  0  0  0  0  0  0
   -7.2498   16.3757   11.6446 H   0  0  0  0  0  0  0  0  0  0  0  0
   -7.0110   12.4394   13.3286 H   0  0  0  0  0  0  0  0  0  0  0  0
   -8.2595   11.5433   11.3608 H   0  0  0  0  0  0  0  0  0  0  0  0
   -7.7663   15.2904   15.2285 H   0  0  0  0  0  0  0  0  0  0  0  0
   -7.8915   16.5037   13.9828 H   0  0  0  0  0  0  0  0  0  0  0  0
   -6.8954   17.5048   15.9932 H   0  0  0  0  0  0  0  0  0  0  0  0
   -5.7257   17.5017   14.6823 H   0  0  0  0  0  0  0  0  0  0  0  0
   -3.4076   14.8776   17.1409 H   0  0  0  0  0  0  0  0  0  0  0  0
   -2.8330   12.1707   13.8350 H   0  0  0  0  0  0  0  0  0  0  0  0
   -4.7114   13.2065   12.6644 H   0  0  0  0  0  0  0  0  0  0  0  0
    0.1859   12.5765   19.5265 H   0  0  0  0  0  0  0  0  0  0  0  0
   -0.1001   10.8212   19.4898 H   0  0  0  0  0  0  0  0  0  0  0  0
   -3.7701   12.0449   18.6643 H   0  0  0  0  0  0  0  0  0  0  0  0
   -3.0881   13.6635   18.9327 H   0  0  0  0  0  0  0  0  0  0  0  0
   -2.2606   10.0005   19.6227 H   0  0  0  0  0  0  0  0  0  0  0  0
   -3.4704   10.7972   20.6675 H   0  0  0  0  0  0  0  0  0  0  0  0
   -1.8434   10.4005   21.2683 H   0  0  0  0  0  0  0  0  0  0  0  0
   -1.8446   14.0000   21.0055 H   0  0  0  0  0  0  0  0  0  0  0  0
   -3.0797   12.9761   21.2229 H   0  0  0  0  0  0  0  0  0  0  0  0
   -1.5039   12.5782   22.0057 H   0  0  0  0  0  0  0  0  0  0  0  0
  2  1  1  0
  3  2  1  0
  4  3  2  0
  5  4  1  0
  6  5  2  0
  7  6  1  0
  8  7  2  0
  9  4  1  0
  9  8  1  0
 10  2  1  0
 10  9  1  0
 11 10  2  0
 12  6  1  0
 13 12  1  0
 14 13  1  0
 15 14  1  0
 16 15  1  0
 17 16  1  0
 18 17  2  0
 19 18  1  0
 20 19  2  0
 21 12  1  0
 21 16  2  0
 21 20  1  0
 22 18  1  0
 23 22  2  0
 24 23  1  0
 25 24  2  0
 26 25  1  0
 27 26  1  0
 28 27  1  0
 29 22  1  0
 29 25  1  0
 29 28  1  0
 30 27  1  0
 31 27  1  0
 32  1  1  0
 33  1  1  0
 34  1  1  0
 35  5  1  0
 36  7  1  0
 37  8  1  0
 38 13  1  0
 39 13  1  0
 40 14  1  0
 41 14  1  0
 42 17  1  0
 43 19  1  0
 44 20  1  0
 45 26  1  0
 46 26  1  0
 47 28  1  0
 48 28  1  0
 49 30  1  0
 50 30  1  0
 51 30  1  0
 52 31  1  0
 53 31  1  0
 54 31  1  0
M  END
>  <ID>  (15) 
compound_46

>  <series>  (15) 
4_5

>  <pKi>  (15) 
8.5097

>  <FEP_pKi>  (15) 
8.0745

>  <smiles>  (15) 
Cn1nc2cc(N3CCOc4cc(-c5nnc6n5CC(C)(C)C6)ccc43)ccn2c1=O

$$$$
compound_42
     RDKit          3D

 53 58  0  0  1  0  0  0  0  0999 V2000
   -2.9726   13.4605   15.6320 C   0  0  0  0  0  0  0  0  0  0  0  0
   -3.5749   14.6244   16.1427 C   0  0  0  0  0  0  0  0  0  0  0  0
   -4.7146   15.1485   15.5191 C   0  0  0  0  0  0  0  0  0  0  0  0
   -5.2032   14.5703   14.3079 C   0  0  0  0  0  0  0  0  0  0  0  0
   -4.4720   13.5037   13.7120 C   0  0  0  0  0  0  0  0  0  0  0  0
   -3.3729   12.9337   14.3811 C   0  0  0  0  0  0  0  0  0  0  0  0
   -6.4015   15.0981   13.7398 C   0  0  0  0  0  0  0  0  0  0  0  0
   -7.0666   14.5151   12.5396 C   0  0  0  0  0  0  0  0  0  0  0  0
   -7.5145   15.3320   11.5417 C   0  0  0  0  0  0  0  0  0  0  0  0
   -8.2335   14.7999   10.3892 C   0  0  0  0  0  0  0  0  0  0  0  0
   -8.4585   13.4260   10.3896 N   0  0  0  0  0  0  0  0  0  0  0  0
   -8.0218   12.5665   11.4117 C   0  0  0  0  0  0  0  0  0  0  0  0
   -7.3360   13.0719   12.4577 C   0  0  0  0  0  0  0  0  0  0  0  0
   -8.7305   15.3514    9.3264 N   0  0  0  0  0  0  0  0  0  0  0  0
   -9.2860   14.2955    8.6522 N   0  0  0  0  0  0  0  0  0  0  0  0
   -9.1320   13.1156    9.2764 C   0  0  0  0  0  0  0  0  0  0  0  0
   -9.5288   12.0068    8.9043 O   0  0  0  0  0  0  0  0  0  0  0  0
   -9.9963   14.5147    7.3912 C   0  0  0  0  0  0  0  0  0  0  0  0
   -5.3760   16.2281   16.1429 C   0  0  0  0  0  0  0  0  0  0  0  0
   -6.5347   16.7637   15.5565 C   0  0  0  0  0  0  0  0  0  0  0  0
   -7.0375   16.2050   14.3633 C   0  0  0  0  0  0  0  0  0  0  0  0
   -1.9765   12.7783   16.4275 C   0  0  0  0  0  0  0  0  0  0  0  0
   -1.9847   12.6029   17.7827 N   0  0  0  0  0  0  0  0  0  0  0  0
   -0.8092   11.9772   17.9600 C   0  0  0  0  0  0  0  0  0  0  0  0
   -0.2432   11.6001   16.8221 N   0  0  0  0  0  0  0  0  0  0  0  0
   -0.9143   12.2483   15.8300 N   0  0  0  0  0  0  0  0  0  0  0  0
   -2.9310   13.0500   18.8103 C   0  0  0  0  0  0  0  0  0  0  0  0
   -3.3194   11.9735   19.8448 C   0  0  0  0  0  0  0  0  0  0  0  0
   -2.2032   11.5842   20.8356 C   0  0  0  0  0  0  0  0  0  0  0  0
   -1.0515   10.8406   20.1588 C   0  0  0  0  0  0  0  0  0  0  0  0
   -0.1896   11.7476   19.2940 C   0  0  0  0  0  0  0  0  0  0  0  0
   -3.2213   15.0711   17.0619 H   0  0  0  0  0  0  0  0  0  0  0  0
   -4.7686   13.0694   12.7706 H   0  0  0  0  0  0  0  0  0  0  0  0
   -2.8814   12.0689   13.9598 H   0  0  0  0  0  0  0  0  0  0  0  0
   -7.3301   16.3944   11.6198 H   0  0  0  0  0  0  0  0  0  0  0  0
   -8.2786   11.5241   11.2842 H   0  0  0  0  0  0  0  0  0  0  0  0
   -7.0131   12.4117   13.2495 H   0  0  0  0  0  0  0  0  0  0  0  0
   -9.8107   13.6989    6.6898 H   0  0  0  0  0  0  0  0  0  0  0  0
   -9.6769   15.4459    6.9180 H   0  0  0  0  0  0  0  0  0  0  0  0
  -11.0711   14.5732    7.5724 H   0  0  0  0  0  0  0  0  0  0  0  0
   -5.0005   16.6499   17.0648 H   0  0  0  0  0  0  0  0  0  0  0  0
   -7.0445   17.5920   16.0252 H   0  0  0  0  0  0  0  0  0  0  0  0
   -7.9482   16.6134   13.9491 H   0  0  0  0  0  0  0  0  0  0  0  0
   -2.5219   13.9272   19.3033 H   0  0  0  0  0  0  0  0  0  0  0  0
   -3.8432   13.3682   18.3259 H   0  0  0  0  0  0  0  0  0  0  0  0
   -4.1674   12.3444   20.4218 H   0  0  0  0  0  0  0  0  0  0  0  0
   -3.6867   11.0892   19.3236 H   0  0  0  0  0  0  0  0  0  0  0  0
   -1.8360   12.4600   21.3736 H   0  0  0  0  0  0  0  0  0  0  0  0
   -2.6263   10.9190   21.5881 H   0  0  0  0  0  0  0  0  0  0  0  0
   -0.3956   10.4019   20.8973 H   0  0  0  0  0  0  0  0  0  0  0  0
   -1.4453   10.0193   19.5649 H   0  0  0  0  0  0  0  0  0  0  0  0
    0.7836   11.2775   19.1405 H   0  0  0  0  0  0  0  0  0  0  0  0
    0.0052   12.7032   19.7813 H   0  0  0  0  0  0  0  0  0  0  0  0
  2  1  2  0
  3  2  1  0
  4  3  1  0
  5  4  1  0
  6  1  1  0
  6  5  2  0
  7  4  2  0
  8  7  1  0
  9  8  2  0
 10  9  1  0
 11 10  1  0
 12 11  1  0
 13  8  1  0
 13 12  2  0
 14 10  2  0
 15 14  1  0
 16 11  1  0
 16 15  1  0
 17 16  2  0
 18 15  1  0
 19  3  2  0
 20 19  1  0
 21  7  1  0
 21 20  2  0
 22  1  1  0
 23 22  1  0
 24 23  1  0
 25 24  2  0
 26 22  2  0
 26 25  1  0
 27 23  1  0
 28 27  1  0
 29 28  1  0
 30 29  1  0
 31 24  1  0
 31 30  1  0
 32  2  1  0
 33  5  1  0
 34  6  1  0
 35  9  1  0
 36 12  1  0
 37 13  1  0
 38 18  1  0
 39 18  1  0
 40 18  1  0
 41 19  1  0
 42 20  1  0
 43 21  1  0
 44 27  1  0
 45 27  1  0
 46 28  1  0
 47 28  1  0
 48 29  1  0
 49 29  1  0
 50 30  1  0
 51 30  1  0
 52 31  1  0
 53 31  1  0
M  END
>  <ID>  (16) 
compound_42

>  <series>  (16) 
4_5

>  <pKi>  (16) 
9.8588

>  <FEP_pKi>  (16) 
8.1563

>  <smiles>  (16) 
Cn1nc2cc(-c3cccc4cc(-c5nnc6n5CCCCC6)ccc34)ccn2c1=O

$$$$
compound_17
     RDKit          3D

 49 52  0  0  1  0  0  0  0  0999 V2000
   -1.5108   12.6143   16.0705 C   0  0  0  0  0  0  0  0  0  0  0  0
   -0.4775   12.6703   15.4153 O   0  0  0  0  0  0  0  0  0  0  0  0
   -1.6251   11.9379   17.2375 N   0  0  0  0  0  0  0  0  0  0  0  0
   -4.8817   14.5627   14.3240 C   0  0  0  0  0  0  0  0  0  0  0  0
   -2.8636   11.7636   18.0151 C   0  0  0  0  0  0  0  0  0  0  0  0
   -2.7178   12.4479   19.3805 C   0  0  0  0  0  0  0  0  0  0  0  0
   -1.4686   11.9297   20.1224 C   0  0  0  0  0  0  0  0  0  0  0  0
   -0.2023   11.9340   19.2401 C   0  0  0  0  0  0  0  0  0  0  0  0
   -0.4833   11.2687   17.8842 C   0  0  0  0  0  0  0  0  0  0  0  0
   -1.2604   12.6532   21.2371 F   0  0  0  0  0  0  0  0  0  0  0  0
   -1.7055   10.6815   20.4897 F   0  0  0  0  0  0  0  0  0  0  0  0
   -5.9696   15.2054   13.6948 N   0  0  0  0  0  0  0  0  0  0  0  0
   -6.7483   14.6243   12.6875 C   0  0  0  0  0  0  0  0  0  0  0  0
   -7.2746   15.3806   11.6862 C   0  0  0  0  0  0  0  0  0  0  0  0
   -8.0863   14.7953   10.6349 C   0  0  0  0  0  0  0  0  0  0  0  0
   -8.2898   13.4308   10.7176 N   0  0  0  0  0  0  0  0  0  0  0  0
   -7.7818   12.6264   11.7346 C   0  0  0  0  0  0  0  0  0  0  0  0
   -7.0317   13.1845   12.7017 C   0  0  0  0  0  0  0  0  0  0  0  0
   -8.6640   15.2907    9.5918 N   0  0  0  0  0  0  0  0  0  0  0  0
   -9.2506   14.2079    9.0195 N   0  0  0  0  0  0  0  0  0  0  0  0
   -9.0323   13.0734    9.6836 C   0  0  0  0  0  0  0  0  0  0  0  0
   -9.4467   11.9585    9.3936 O   0  0  0  0  0  0  0  0  0  0  0  0
  -10.0305   14.3647    7.7989 C   0  0  0  0  0  0  0  0  0  0  0  0
   -4.5984   14.7920   15.6855 C   0  0  0  0  0  0  0  0  0  0  0  0
   -3.4858   14.1871   16.2632 C   0  0  0  0  0  0  0  0  0  0  0  0
   -2.7056   13.3038   15.4982 C   0  0  0  0  0  0  0  0  0  0  0  0
   -3.0423   13.1473   14.1365 C   0  0  0  0  0  0  0  0  0  0  0  0
   -4.0977   13.7632   13.5602 N   0  0  0  0  0  0  0  0  0  0  0  0
   -6.1501   16.5968   14.1201 C   0  0  0  0  0  0  0  0  0  0  0  0
   -3.7546   12.1438   17.5191 H   0  0  0  0  0  0  0  0  0  0  0  0
   -3.0882   10.7065   18.1233 H   0  0  0  0  0  0  0  0  0  0  0  0
   -2.6499   13.5239   19.2406 H   0  0  0  0  0  0  0  0  0  0  0  0
   -3.6097   12.2657   19.9770 H   0  0  0  0  0  0  0  0  0  0  0  0
    0.1396   12.9525   19.0677 H   0  0  0  0  0  0  0  0  0  0  0  0
    0.6082   11.4128   19.7475 H   0  0  0  0  0  0  0  0  0  0  0  0
   -0.7087   10.2068   18.0093 H   0  0  0  0  0  0  0  0  0  0  0  0
    0.4278   11.2883   17.2736 H   0  0  0  0  0  0  0  0  0  0  0  0
   -7.0633   16.4354   11.6543 H   0  0  0  0  0  0  0  0  0  0  0  0
   -8.0172   11.5751   11.6685 H   0  0  0  0  0  0  0  0  0  0  0  0
   -6.6372   12.5542   13.4868 H   0  0  0  0  0  0  0  0  0  0  0  0
  -11.0590   14.0383    7.9572 H   0  0  0  0  0  0  0  0  0  0  0  0
  -10.0516   15.4048    7.4708 H   0  0  0  0  0  0  0  0  0  0  0  0
   -9.6018   13.7648    6.9955 H   0  0  0  0  0  0  0  0  0  0  0  0
   -5.2277   15.4217   16.2955 H   0  0  0  0  0  0  0  0  0  0  0  0
   -3.2763   14.3355   17.3121 H   0  0  0  0  0  0  0  0  0  0  0  0
   -2.4488   12.5255   13.4797 H   0  0  0  0  0  0  0  0  0  0  0  0
   -7.1920   16.7757   14.3792 H   0  0  0  0  0  0  0  0  0  0  0  0
   -5.5556   16.8930   14.9807 H   0  0  0  0  0  0  0  0  0  0  0  0
   -5.8626   17.2741   13.3222 H   0  0  0  0  0  0  0  0  0  0  0  0
  2  1  2  0
  3  1  1  0
  5  3  1  0
  6  5  1  0
  7  6  1  0
  8  7  1  0
  9  3  1  0
  9  8  1  0
 10  7  1  0
 11  7  1  0
 12  4  1  0
 13 12  1  0
 14 13  2  0
 15 14  1  0
 16 15  1  0
 17 16  1  0
 18 13  1  0
 18 17  2  0
 19 15  2  0
 20 19  1  0
 21 16  1  0
 21 20  1  0
 22 21  2  0
 23 20  1  0
 24  4  2  0
 25 24  1  0
 26  1  1  0
 26 25  2  0
 27 26  1  0
 28  4  1  0
 28 27  2  0
 29 12  1  0
 30  5  1  0
 31  5  1  0
 32  6  1  0
 33  6  1  0
 34  8  1  0
 35  8  1  0
 36  9  1  0
 37  9  1  0
 38 14  1  0
 39 17  1  0
 40 18  1  0
 41 23  1  0
 42 23  1  0
 43 23  1  0
 44 24  1  0
 45 25  1  0
 46 27  1  0
 47 29  1  0
 48 29  1  0
 49 29  1  0
M  END
>  <ID>  (17) 
compound_17

>  <series>  (17) 
1

>  <pKi>  (17) 
9.2006

>  <FEP_pKi>  (17) 
9.0936

>  <smiles>  (17) 
CN(c1ccn2c(=O)n(C)nc2c1)c1ccc(C(=O)N2CCC(F)(F)CC2)cn1

$$$$
compound_23
     RDKit          3D

 42 45  0  0  1  0  0  0  0  0999 V2000
   -1.2641   12.6443   21.2068 F   0  0  0  0  0  0  0  0  0  0  0  0
   -1.4758   11.9265   20.1093 C   0  0  0  0  0  0  0  0  0  0  0  0
   -1.7169   10.6787   20.4769 F   0  0  0  0  0  0  0  0  0  0  0  0
   -0.2204   11.9323   19.2280 C   0  0  0  0  0  0  0  0  0  0  0  0
   -0.5098   11.2707   17.8760 C   0  0  0  0  0  0  0  0  0  0  0  0
   -1.6377   11.9546   17.2439 N   0  0  0  0  0  0  0  0  0  0  0  0
   -2.8705   11.7657   18.0049 C   0  0  0  0  0  0  0  0  0  0  0  0
   -2.7155   12.4419   19.3719 C   0  0  0  0  0  0  0  0  0  0  0  0
   -1.5175   12.6382   16.0818 C   0  0  0  0  0  0  0  0  0  0  0  0
   -0.4597   12.7168   15.4578 O   0  0  0  0  0  0  0  0  0  0  0  0
   -2.7285   13.2996   15.4949 C   0  0  0  0  0  0  0  0  0  0  0  0
   -3.3731   14.3481   16.1175 C   0  0  0  0  0  0  0  0  0  0  0  0
   -4.5321   14.8957   15.5052 C   0  0  0  0  0  0  0  0  0  0  0  0
   -5.3629   15.8858   15.8192 N   0  0  0  0  0  0  0  0  0  0  0  0
   -6.3413   15.8930   14.8309 C   0  0  0  0  0  0  0  0  0  0  0  0
   -6.1259   14.9034   13.9128 C   0  0  0  0  0  0  0  0  0  0  0  0
   -4.9401   14.2856   14.2957 N   0  0  0  0  0  0  0  0  0  0  0  0
   -4.3116   13.2838   13.6298 N   0  0  0  0  0  0  0  0  0  0  0  0
   -3.2276   12.8507   14.2540 C   0  0  0  0  0  0  0  0  0  0  0  0
   -6.9081   14.4741   12.7510 C   0  0  0  0  0  0  0  0  0  0  0  0
   -7.2579   13.1194   12.5815 C   0  0  0  0  0  0  0  0  0  0  0  0
   -7.9909   12.6967   11.4587 C   0  0  0  0  0  0  0  0  0  0  0  0
   -8.3785   13.6347   10.4894 C   0  0  0  0  0  0  0  0  0  0  0  0
   -8.0624   14.9868   10.6591 C   0  0  0  0  0  0  0  0  0  0  0  0
   -7.3353   15.4029   11.7854 C   0  0  0  0  0  0  0  0  0  0  0  0
   -9.0982   13.2345    9.3040 C   0  0  0  0  0  0  0  0  0  0  0  0
   -9.6775   12.9233    8.3570 N   0  0  0  0  0  0  0  0  0  0  0  0
    0.5949   11.4163   19.7339 H   0  0  0  0  0  0  0  0  0  0  0  0
    0.1204   12.9578   19.0654 H   0  0  0  0  0  0  0  0  0  0  0  0
   -0.7704   10.2214   18.0194 H   0  0  0  0  0  0  0  0  0  0  0  0
    0.3928   11.2549   17.2651 H   0  0  0  0  0  0  0  0  0  0  0  0
   -3.7625   12.1404   17.5061 H   0  0  0  0  0  0  0  0  0  0  0  0
   -3.0453   10.6964   18.1337 H   0  0  0  0  0  0  0  0  0  0  0  0
   -2.6384   13.5203   19.2319 H   0  0  0  0  0  0  0  0  0  0  0  0
   -3.6074   12.2782   19.9779 H   0  0  0  0  0  0  0  0  0  0  0  0
   -3.0288   14.7629   17.0600 H   0  0  0  0  0  0  0  0  0  0  0  0
   -7.1532   16.6067   14.8716 H   0  0  0  0  0  0  0  0  0  0  0  0
   -2.7156   12.0356   13.7509 H   0  0  0  0  0  0  0  0  0  0  0  0
   -6.9577   12.3932   13.3209 H   0  0  0  0  0  0  0  0  0  0  0  0
   -8.2510   11.6524   11.3453 H   0  0  0  0  0  0  0  0  0  0  0  0
   -8.3661   15.7238    9.9288 H   0  0  0  0  0  0  0  0  0  0  0  0
   -7.0905   16.4496   11.8999 H   0  0  0  0  0  0  0  0  0  0  0  0
  2  1  1  0
  3  2  1  0
  4  2  1  0
  5  4  1  0
  6  5  1  0
  7  6  1  0
  8  2  1  0
  8  7  1  0
  9  6  1  0
 10  9  2  0
 11  9  1  0
 12 11  2  0
 13 12  1  0
 14 13  2  0
 15 14  1  0
 16 15  2  0
 17 13  1  0
 17 16  1  0
 18 17  1  0
 19 11  1  0
 19 18  2  0
 20 16  1  0
 21 20  1  0
 22 21  2  0
 23 22  1  0
 24 23  2  0
 25 20  2  0
 25 24  1  0
 26 23  1  0
 27 26  3  0
 28  4  1  0
 29  4  1  0
 30  5  1  0
 31  5  1  0
 32  7  1  0
 33  7  1  0
 34  8  1  0
 35  8  1  0
 36 12  1  0
 37 15  1  0
 38 19  1  0
 39 21  1  0
 40 22  1  0
 41 24  1  0
 42 25  1  0
M  END
>  <ID>  (18) 
compound_23

>  <series>  (18) 
2

>  <pKi>  (18) 
7.9581

>  <FEP_pKi>  (18) 
6.8109

>  <smiles>  (18) 
N#Cc1ccc(-c2cnc3cc(C(=O)N4CCC(F)(F)CC4)cnn23)cc1

$$$$
compound_18
     RDKit          3D

 49 52  0  0  1  0  0  0  0  0999 V2000
   -6.6444   16.2346   14.4990 C   0  0  0  0  0  0  0  0  0  0  0  0
   -6.1529   15.0295   13.8208 N   0  0  0  0  0  0  0  0  0  0  0  0
   -4.9861   14.4743   14.4086 C   0  0  0  0  0  0  0  0  0  0  0  0
   -4.1293   15.2344   15.2323 C   0  0  0  0  0  0  0  0  0  0  0  0
   -2.9806   14.6435   15.7886 C   0  0  0  0  0  0  0  0  0  0  0  0
   -2.7175   13.2893   15.5168 C   0  0  0  0  0  0  0  0  0  0  0  0
   -3.4913   12.5469   14.7229 N   0  0  0  0  0  0  0  0  0  0  0  0
   -4.5704   13.1331   14.1996 C   0  0  0  0  0  0  0  0  0  0  0  0
   -1.5134   12.6123   16.0696 C   0  0  0  0  0  0  0  0  0  0  0  0
   -0.4771   12.6871   15.4139 O   0  0  0  0  0  0  0  0  0  0  0  0
   -1.6303   11.9386   17.2405 N   0  0  0  0  0  0  0  0  0  0  0  0
   -2.8746   11.7773   18.0067 C   0  0  0  0  0  0  0  0  0  0  0  0
   -2.7150   12.4477   19.3839 C   0  0  0  0  0  0  0  0  0  0  0  0
   -1.4643   11.9359   20.1253 C   0  0  0  0  0  0  0  0  0  0  0  0
   -1.2601   12.6507   21.2341 F   0  0  0  0  0  0  0  0  0  0  0  0
   -1.7057   10.6789   20.4888 F   0  0  0  0  0  0  0  0  0  0  0  0
   -0.2025   11.9292   19.2360 C   0  0  0  0  0  0  0  0  0  0  0  0
   -0.4819   11.2716   17.8681 C   0  0  0  0  0  0  0  0  0  0  0  0
   -6.8681   14.4727   12.7615 C   0  0  0  0  0  0  0  0  0  0  0  0
   -7.2818   15.2486   11.7242 C   0  0  0  0  0  0  0  0  0  0  0  0
   -8.0330   14.6866   10.6166 C   0  0  0  0  0  0  0  0  0  0  0  0
   -8.5099   15.1921    9.5312 N   0  0  0  0  0  0  0  0  0  0  0  0
   -9.0887   14.1269    8.9185 N   0  0  0  0  0  0  0  0  0  0  0  0
   -9.7612   14.3193    7.6409 C   0  0  0  0  0  0  0  0  0  0  0  0
   -8.9763   12.9884    9.6015 C   0  0  0  0  0  0  0  0  0  0  0  0
   -9.4159   11.8862    9.2884 O   0  0  0  0  0  0  0  0  0  0  0  0
   -8.2873   13.3268   10.6785 N   0  0  0  0  0  0  0  0  0  0  0  0
   -7.8840   12.5089   11.7247 C   0  0  0  0  0  0  0  0  0  0  0  0
   -7.2290   13.0536   12.7488 C   0  0  0  0  0  0  0  0  0  0  0  0
   -7.6394   16.5197   14.1576 H   0  0  0  0  0  0  0  0  0  0  0  0
   -6.7099   16.0714   15.5782 H   0  0  0  0  0  0  0  0  0  0  0  0
   -5.9863   17.0853   14.3172 H   0  0  0  0  0  0  0  0  0  0  0  0
   -4.3249   16.2742   15.4343 H   0  0  0  0  0  0  0  0  0  0  0  0
   -2.3259   15.2260   16.4182 H   0  0  0  0  0  0  0  0  0  0  0  0
   -5.0482   12.4220   13.5707 H   0  0  0  0  0  0  0  0  0  0  0  0
   -3.7465   12.1888   17.5013 H   0  0  0  0  0  0  0  0  0  0  0  0
   -3.0894   10.7149   18.1209 H   0  0  0  0  0  0  0  0  0  0  0  0
   -2.6599   13.5290   19.2557 H   0  0  0  0  0  0  0  0  0  0  0  0
   -3.6007   12.2488   19.9882 H   0  0  0  0  0  0  0  0  0  0  0  0
    0.1538   12.9474   19.0762 H   0  0  0  0  0  0  0  0  0  0  0  0
    0.6015   11.3969   19.7473 H   0  0  0  0  0  0  0  0  0  0  0  0
   -0.6640   10.2012   17.9774 H   0  0  0  0  0  0  0  0  0  0  0  0
    0.3987   11.3382   17.2321 H   0  0  0  0  0  0  0  0  0  0  0  0
   -7.0398   16.3006   11.7323 H   0  0  0  0  0  0  0  0  0  0  0  0
  -10.1838   13.3903    7.2546 H   0  0  0  0  0  0  0  0  0  0  0  0
  -10.5729   15.0392    7.7475 H   0  0  0  0  0  0  0  0  0  0  0  0
   -9.0582   14.7020    6.9010 H   0  0  0  0  0  0  0  0  0  0  0  0
   -8.1537   11.4633   11.6623 H   0  0  0  0  0  0  0  0  0  0  0  0
   -7.0168   12.4014   13.5722 H   0  0  0  0  0  0  0  0  0  0  0  0
  2  1  1  0
  3  2  1  0
  4  3  2  0
  5  4  1  0
  6  5  2  0
  7  6  1  0
  8  3  1  0
  8  7  2  0
  9  6  1  0
 10  9  2  0
 11  9  1  0
 12 11  1  0
 13 12  1  0
 14 13  1  0
 15 14  1  0
 16 14  1  0
 17 14  1  0
 18 11  1  0
 18 17  1  0
 19  2  1  0
 20 19  2  0
 21 20  1  0
 22 21  2  0
 23 22  1  0
 24 23  1  0
 25 23  1  0
 26 25  2  0
 27 21  1  0
 27 25  1  0
 28 27  1  0
 29 19  1  0
 29 28  2  0
 30  1  1  0
 31  1  1  0
 32  1  1  0
 33  4  1  0
 34  5  1  0
 35  8  1  0
 36 12  1  0
 37 12  1  0
 38 13  1  0
 39 13  1  0
 40 17  1  0
 41 17  1  0
 42 18  1  0
 43 18  1  0
 44 20  1  0
 45 24  1  0
 46 24  1  0
 47 24  1  0
 48 28  1  0
 49 29  1  0
M  END
>  <ID>  (19) 
compound_18

>  <series>  (19) 
1

>  <pKi>  (19) 
7.9000

>  <FEP_pKi>  (19) 
9.0000

>  <smiles>  (19) 
CN(c1ccc(C(=O)N2CCC(F)(F)CC2)nc1)c1ccn2c(=O)n(C)nc2c1

$$$$
compound_21
     RDKit          3D

 46 49  0  0  1  0  0  0  0  0999 V2000
   -7.4996   16.9240   15.1142 C   0  0  0  0  0  0  0  0  0  0  0  0
   -6.3915   15.9458   15.0323 N   0  0  0  0  0  0  0  0  0  0  0  0
   -6.0648   15.0846   13.9777 N   0  0  0  0  0  0  0  0  0  0  0  0
   -4.9377   14.3618   14.3533 C   0  0  0  0  0  0  0  0  0  0  0  0
   -4.5481   14.7842   15.5930 C   0  0  0  0  0  0  0  0  0  0  0  0
   -3.4079   14.2687   16.2234 C   0  0  0  0  0  0  0  0  0  0  0  0
   -2.7128   13.2811   15.4951 C   0  0  0  0  0  0  0  0  0  0  0  0
   -3.1942   12.9231   14.2157 C   0  0  0  0  0  0  0  0  0  0  0  0
   -4.3116   13.4294   13.6439 N   0  0  0  0  0  0  0  0  0  0  0  0
   -1.5059   12.6168   16.0747 C   0  0  0  0  0  0  0  0  0  0  0  0
   -0.4494   12.6959   15.4510 O   0  0  0  0  0  0  0  0  0  0  0  0
   -1.6270   11.9421   17.2413 N   0  0  0  0  0  0  0  0  0  0  0  0
   -2.8660   11.7723   17.9995 C   0  0  0  0  0  0  0  0  0  0  0  0
   -2.7066   12.4413   19.3848 C   0  0  0  0  0  0  0  0  0  0  0  0
   -1.4540   11.9819   20.1788 C   0  0  0  0  0  0  0  0  0  0  0  0
   -1.6858   10.7417   20.5886 F   0  0  0  0  0  0  0  0  0  0  0  0
   -0.2154   11.9306   19.2437 C   0  0  0  0  0  0  0  0  0  0  0  0
   -0.4933   11.2663   17.8772 C   0  0  0  0  0  0  0  0  0  0  0  0
   -5.5073   15.8317   15.9520 C   0  0  0  0  0  0  0  0  0  0  0  0
   -5.5936   16.5927   16.8205 O   0  0  0  0  0  0  0  0  0  0  0  0
   -6.5836   15.3339   12.7154 C   0  0  0  0  0  0  0  0  0  0  0  0
   -6.8384   14.1653   12.0160 C   0  0  0  0  0  0  0  0  0  0  0  0
   -7.5407   14.0859   10.8390 C   0  0  0  0  0  0  0  0  0  0  0  0
   -7.8545   15.2776   10.1991 C   0  0  0  0  0  0  0  0  0  0  0  0
   -7.4838   16.5077   10.7940 C   0  0  0  0  0  0  0  0  0  0  0  0
   -6.8797   16.5583   12.0798 C   0  0  0  0  0  0  0  0  0  0  0  0
   -8.5141   15.2105    8.9127 C   0  0  0  0  0  0  0  0  0  0  0  0
   -9.0389   15.1552    7.8851 N   0  0  0  0  0  0  0  0  0  0  0  0
   -7.5281   17.5695   15.9818 H   0  0  0  0  0  0  0  0  0  0  0  0
   -7.4838   17.5532   14.2232 H   0  0  0  0  0  0  0  0  0  0  0  0
   -8.4559   16.4271   15.2309 H   0  0  0  0  0  0  0  0  0  0  0  0
   -3.0652   14.6116   17.1888 H   0  0  0  0  0  0  0  0  0  0  0  0
   -2.7436   12.1069   13.6668 H   0  0  0  0  0  0  0  0  0  0  0  0
   -3.7349   12.1806   17.4803 H   0  0  0  0  0  0  0  0  0  0  0  0
   -3.0757   10.7056   18.0970 H   0  0  0  0  0  0  0  0  0  0  0  0
   -2.6468   13.5210   19.2449 H   0  0  0  0  0  0  0  0  0  0  0  0
   -3.6000   12.2655   19.9858 H   0  0  0  0  0  0  0  0  0  0  0  0
   -1.2623   12.6300   21.2125 H   0  0  0  0  0  0  0  0  0  0  0  0
    0.6042   11.4126   19.7444 H   0  0  0  0  0  0  0  0  0  0  0  0
    0.1383   12.9469   19.0682 H   0  0  0  0  0  0  0  0  0  0  0  0
   -0.7277   10.2076   17.9969 H   0  0  0  0  0  0  0  0  0  0  0  0
    0.4053   11.2816   17.2543 H   0  0  0  0  0  0  0  0  0  0  0  0
   -6.4895   13.2583   12.4135 H   0  0  0  0  0  0  0  0  0  0  0  0
   -7.7635   13.1081   10.4429 H   0  0  0  0  0  0  0  0  0  0  0  0
   -7.7553   17.4209   10.2804 H   0  0  0  0  0  0  0  0  0  0  0  0
   -6.6617   17.5247   12.5047 H   0  0  0  0  0  0  0  0  0  0  0  0
  2  1  1  0
  3  2  1  0
  4  3  1  0
  5  4  2  0
  6  5  1  0
  7  6  2  0
  8  7  1  0
  9  4  1  0
  9  8  2  0
 10  7  1  0
 11 10  2  0
 12 10  1  0
 13 12  1  0
 14 13  1  0
 15 14  1  0
 16 15  1  0
 17 15  1  0
 18 12  1  0
 18 17  1  0
 19  2  1  0
 19  5  1  0
 20 19  2  0
 21  3  1  0
 22 21  1  0
 23 22  2  0
 24 23  1  0
 25 24  2  0
 26 21  2  0
 26 25  1  0
 27 24  1  0
 28 27  3  0
 29  1  1  0
 30  1  1  0
 31  1  1  0
 32  6  1  0
 33  8  1  0
 34 13  1  0
 35 13  1  0
 36 14  1  0
 37 14  1  0
 38 15  1  0
 39 17  1  0
 40 17  1  0
 41 18  1  0
 42 18  1  0
 43 22  1  0
 44 23  1  0
 45 25  1  0
 46 26  1  0
M  END
>  <ID>  (20) 
compound_21

>  <series>  (20) 
2

>  <pKi>  (20) 
7.1283

>  <FEP_pKi>  (20) 
6.8695

>  <smiles>  (20) 
Cn1c(=O)c2cc(C(=O)N3CCC(F)CC3)cnc2n1-c1ccc(C#N)cc1

$$$$
compound_35
     RDKit          3D

 53 56  0  0  1  0  0  0  0  0999 V2000
   -8.6433    8.0003   11.8307 N   0  0  0  0  0  0  0  0  0  0  0  0
   -8.5182    9.2880   11.4319 C   0  0  0  0  0  0  0  0  0  0  0  0
   -8.6434    9.6105   10.1501 N   0  0  0  0  0  0  0  0  0  0  0  0
   -8.5355   10.9347    9.8801 C   0  0  0  0  0  0  0  0  0  0  0  0
   -8.3223   11.9251   10.8796 C   0  0  0  0  0  0  0  0  0  0  0  0
   -8.3245   13.3812   10.6498 C   0  0  0  0  0  0  0  0  0  0  0  0
   -9.0219   13.8178    9.5038 C   0  0  0  0  0  0  0  0  0  0  0  0
   -9.1598   15.1745    9.2049 C   0  0  0  0  0  0  0  0  0  0  0  0
   -8.6434   16.1297   10.0846 C   0  0  0  0  0  0  0  0  0  0  0  0
   -7.9313   15.7285   11.2256 C   0  0  0  0  0  0  0  0  0  0  0  0
   -7.7312   14.3565   11.5185 C   0  0  0  0  0  0  0  0  0  0  0  0
   -6.9788   13.9539   12.6138 O   0  0  0  0  0  0  0  0  0  0  0  0
   -6.2835   14.9260   13.4051 C   0  0  0  0  0  0  0  0  0  0  0  0
   -5.1627   14.3117   14.2322 C   0  0  0  0  0  0  0  0  0  0  0  0
   -4.4896   13.1816   13.7392 C   0  0  0  0  0  0  0  0  0  0  0  0
   -3.3851   12.6444   14.4168 C   0  0  0  0  0  0  0  0  0  0  0  0
   -2.9420   13.2210   15.6223 C   0  0  0  0  0  0  0  0  0  0  0  0
   -1.6925   12.6872   16.2594 C   0  0  0  0  0  0  0  0  0  0  0  0
   -0.6433   12.8003   15.6227 O   0  0  0  0  0  0  0  0  0  0  0  0
   -1.7590   12.0613   17.4616 N   0  0  0  0  0  0  0  0  0  0  0  0
   -2.9588   11.8794   18.2854 C   0  0  0  0  0  0  0  0  0  0  0  0
   -2.7428   12.5202   19.6687 C   0  0  0  0  0  0  0  0  0  0  0  0
   -1.4854   11.9570   20.3560 C   0  0  0  0  0  0  0  0  0  0  0  0
   -0.2643   12.0004   19.4203 C   0  0  0  0  0  0  0  0  0  0  0  0
   -0.6000   11.3801   18.0531 C   0  0  0  0  0  0  0  0  0  0  0  0
   -3.6239   14.3453   16.1414 C   0  0  0  0  0  0  0  0  0  0  0  0
   -4.7239   14.8949   15.4427 C   0  0  0  0  0  0  0  0  0  0  0  0
   -8.2286   11.4147   12.1737 C   0  0  0  0  0  0  0  0  0  0  0  0
   -8.2698   10.1045   12.4227 N   0  0  0  0  0  0  0  0  0  0  0  0
   -8.8108    7.8661   12.8186 H   0  0  0  0  0  0  0  0  0  0  0  0
   -9.1452    7.3768   11.2227 H   0  0  0  0  0  0  0  0  0  0  0  0
   -8.6434   11.1922    8.8382 H   0  0  0  0  0  0  0  0  0  0  0  0
   -9.5025   13.1249    8.8320 H   0  0  0  0  0  0  0  0  0  0  0  0
   -9.7062   15.4858    8.3269 H   0  0  0  0  0  0  0  0  0  0  0  0
   -8.7857   17.1807    9.8806 H   0  0  0  0  0  0  0  0  0  0  0  0
   -7.5502   16.5121   11.8613 H   0  0  0  0  0  0  0  0  0  0  0  0
   -6.9893   15.4422   14.0573 H   0  0  0  0  0  0  0  0  0  0  0  0
   -5.7959   15.6691   12.7731 H   0  0  0  0  0  0  0  0  0  0  0  0
   -4.8116   12.7290   12.8227 H   0  0  0  0  0  0  0  0  0  0  0  0
   -2.8732   11.7945   13.9910 H   0  0  0  0  0  0  0  0  0  0  0  0
   -3.1615   10.8124   18.3917 H   0  0  0  0  0  0  0  0  0  0  0  0
   -3.8433   12.3026   17.8264 H   0  0  0  0  0  0  0  0  0  0  0  0
   -3.6172   12.3558   20.2995 H   0  0  0  0  0  0  0  0  0  0  0  0
   -2.6458   13.6003   19.5552 H   0  0  0  0  0  0  0  0  0  0  0  0
   -1.2783   12.5050   21.2762 H   0  0  0  0  0  0  0  0  0  0  0  0
   -1.6720   10.9229   20.6503 H   0  0  0  0  0  0  0  0  0  0  0  0
    0.0670   13.0298   19.2813 H   0  0  0  0  0  0  0  0  0  0  0  0
    0.5706   11.4687   19.8778 H   0  0  0  0  0  0  0  0  0  0  0  0
   -0.8488   10.3264   18.1691 H   0  0  0  0  0  0  0  0  0  0  0  0
    0.2817   11.3988   17.4148 H   0  0  0  0  0  0  0  0  0  0  0  0
   -3.2893   14.7981   17.0637 H   0  0  0  0  0  0  0  0  0  0  0  0
   -5.2212   15.7709   15.8333 H   0  0  0  0  0  0  0  0  0  0  0  0
   -8.1406   12.0355   13.0486 H   0  0  0  0  0  0  0  0  0  0  0  0
  2  1  1  0
  3  2  2  0
  4  3  1  0
  5  4  2  0
  6  5  1  0
  7  6  2  0
  8  7  1  0
  9  8  2  0
 10  9  1  0
 11  6  1  0
 11 10  2  0
 12 11  1  0
 13 12  1  0
 14 13  1  0
 15 14  1  0
 16 15  2  0
 17 16  1  0
 18 17  1  0
 19 18  2  0
 20 18  1  0
 21 20  1  0
 22 21  1  0
 23 22  1  0
 24 23  1  0
 25 20  1  0
 25 24  1  0
 26 17  2  0
 27 14  2  0
 27 26  1  0
 28  5  1  0
 29  2  1  0
 29 28  2  0
 30  1  1  0
 31  1  1  0
 32  4  1  0
 33  7  1  0
 34  8  1  0
 35  9  1  0
 36 10  1  0
 37 13  1  0
 38 13  1  0
 39 15  1  0
 40 16  1  0
 41 21  1  0
 42 21  1  0
 43 22  1  0
 44 22  1  0
 45 23  1  0
 46 23  1  0
 47 24  1  0
 48 24  1  0
 49 25  1  0
 50 25  1  0
 51 26  1  0
 52 27  1  0
 53 28  1  0
M  END
>  <ID>  (21) 
compound_35

>  <series>  (21) 
3

>  <pKi>  (21) 
9.9084

>  <FEP_pKi>  (21) 
8.4384

>  <smiles>  (21) 
Nc1ncc(-c2ccccc2OCc2ccc(C(=O)N3CCCCC3)cc2)cn1

$$$$
compound_27
     RDKit          3D

 52 55  0  0  1  0  0  0  0  0999 V2000
   -0.6415   12.7881   15.6228 O   0  0  0  0  0  0  0  0  0  0  0  0
   -1.6840   12.6546   16.2677 C   0  0  0  0  0  0  0  0  0  0  0  0
   -2.9425   13.1565   15.6380 C   0  0  0  0  0  0  0  0  0  0  0  0
   -3.5825   14.3246   16.1086 C   0  0  0  0  0  0  0  0  0  0  0  0
   -4.7039   14.8340   15.4228 C   0  0  0  0  0  0  0  0  0  0  0  0
   -5.1866   14.1795   14.2696 C   0  0  0  0  0  0  0  0  0  0  0  0
   -6.3257   14.7665   13.4636 C   0  0  0  0  0  0  0  0  0  0  0  0
   -7.0235   13.7812   12.6944 O   0  0  0  0  0  0  0  0  0  0  0  0
   -7.7600   14.1880   11.5937 C   0  0  0  0  0  0  0  0  0  0  0  0
   -7.9400   15.5698   11.3051 C   0  0  0  0  0  0  0  0  0  0  0  0
   -8.6211   15.9998   10.1571 C   0  0  0  0  0  0  0  0  0  0  0  0
   -9.1491   15.0556    9.2755 C   0  0  0  0  0  0  0  0  0  0  0  0
   -9.0387   13.6939    9.5786 C   0  0  0  0  0  0  0  0  0  0  0  0
   -8.3454   13.2161   10.7169 C   0  0  0  0  0  0  0  0  0  0  0  0
   -8.3414   11.7350   10.8997 C   0  0  0  0  0  0  0  0  0  0  0  0
   -8.5628   10.8524    9.8105 C   0  0  0  0  0  0  0  0  0  0  0  0
   -8.7087    9.4715   10.0226 C   0  0  0  0  0  0  0  0  0  0  0  0
   -8.6433    8.8953   11.2279 N   0  0  0  0  0  0  0  0  0  0  0  0
   -8.4364    9.7105   12.2705 C   0  0  0  0  0  0  0  0  0  0  0  0
   -8.2434   11.1087   12.1569 C   0  0  0  0  0  0  0  0  0  0  0  0
   -4.5452   13.0168   13.8106 C   0  0  0  0  0  0  0  0  0  0  0  0
   -3.4361   12.5004   14.4940 C   0  0  0  0  0  0  0  0  0  0  0  0
   -1.7460   12.0386   17.4737 N   0  0  0  0  0  0  0  0  0  0  0  0
   -2.9482   11.8658   18.3001 C   0  0  0  0  0  0  0  0  0  0  0  0
   -2.7324   12.5206   19.6761 C   0  0  0  0  0  0  0  0  0  0  0  0
   -1.4715   11.9672   20.3671 C   0  0  0  0  0  0  0  0  0  0  0  0
   -0.2503   12.0033   19.4317 C   0  0  0  0  0  0  0  0  0  0  0  0
   -0.5811   11.3729   18.0681 C   0  0  0  0  0  0  0  0  0  0  0  0
   -3.2052   14.8420   16.9802 H   0  0  0  0  0  0  0  0  0  0  0  0
   -5.1784   15.7397   15.7735 H   0  0  0  0  0  0  0  0  0  0  0  0
   -7.0266   15.2801   14.1251 H   0  0  0  0  0  0  0  0  0  0  0  0
   -5.8453   15.5088   12.8238 H   0  0  0  0  0  0  0  0  0  0  0  0
   -7.5637   16.3470   11.9506 H   0  0  0  0  0  0  0  0  0  0  0  0
   -8.7380   17.0548    9.9580 H   0  0  0  0  0  0  0  0  0  0  0  0
   -9.6918   15.3766    8.3984 H   0  0  0  0  0  0  0  0  0  0  0  0
   -9.5468   13.0276    8.9024 H   0  0  0  0  0  0  0  0  0  0  0  0
   -8.6432   11.2104    8.8018 H   0  0  0  0  0  0  0  0  0  0  0  0
   -8.8997    8.8014    9.2025 H   0  0  0  0  0  0  0  0  0  0  0  0
   -8.3914    9.2134   13.2242 H   0  0  0  0  0  0  0  0  0  0  0  0
   -8.0946   11.7032   13.0429 H   0  0  0  0  0  0  0  0  0  0  0  0
   -4.8904   12.5284   12.9164 H   0  0  0  0  0  0  0  0  0  0  0  0
   -2.9517   11.6138   14.1148 H   0  0  0  0  0  0  0  0  0  0  0  0
   -3.1408   10.8008   18.4235 H   0  0  0  0  0  0  0  0  0  0  0  0
   -3.8432   12.2731   17.8422 H   0  0  0  0  0  0  0  0  0  0  0  0
   -3.6041   12.3598   20.3114 H   0  0  0  0  0  0  0  0  0  0  0  0
   -2.6421   13.6003   19.5531 H   0  0  0  0  0  0  0  0  0  0  0  0
   -1.2633   12.5231   21.2827 H   0  0  0  0  0  0  0  0  0  0  0  0
   -1.6540   10.9353   20.6694 H   0  0  0  0  0  0  0  0  0  0  0  0
    0.0802   13.0327   19.2887 H   0  0  0  0  0  0  0  0  0  0  0  0
    0.5859   11.4764   19.8923 H   0  0  0  0  0  0  0  0  0  0  0  0
   -0.8210   10.3183   18.1873 H   0  0  0  0  0  0  0  0  0  0  0  0
    0.2994   11.3984   17.4295 H   0  0  0  0  0  0  0  0  0  0  0  0
  2  1  2  0
  3  2  1  0
  4  3  1  0
  5  4  2  0
  6  5  1  0
  7  6  1  0
  8  7  1  0
  9  8  1  0
 10  9  2  0
 11 10  1  0
 12 11  2  0
 13 12  1  0
 14  9  1  0
 14 13  2  0
 15 14  1  0
 16 15  2  0
 17 16  1  0
 18 17  2  0
 19 18  1  0
 20 15  1  0
 20 19  2  0
 21  6  2  0
 22  3  2  0
 22 21  1  0
 23  2  1  0
 24 23  1  0
 25 24  1  0
 26 25  1  0
 27 26  1  0
 28 23  1  0
 28 27  1  0
 29  4  1  0
 30  5  1  0
 31  7  1  0
 32  7  1  0
 33 10  1  0
 34 11  1  0
 35 12  1  0
 36 13  1  0
 37 16  1  0
 38 17  1  0
 39 19  1  0
 40 20  1  0
 41 21  1  0
 42 22  1  0
 43 24  1  0
 44 24  1  0
 45 25  1  0
 46 25  1  0
 47 26  1  0
 48 26  1  0
 49 27  1  0
 50 27  1  0
 51 28  1  0
 52 28  1  0
M  END
>  <ID>  (22) 
compound_27

>  <series>  (22) 
3

>  <pKi>  (22) 
9.9336

>  <FEP_pKi>  (22) 
9.2375

>  <smiles>  (22) 
O=C(c1ccc(COc2ccccc2-c2ccncc2)cc1)N1CCCCC1

$$$$
compound_30
     RDKit          3D

 56 59  0  0  1  0  0  0  0  0999 V2000
   -8.7601    7.4869   12.3487 C   0  0  0  0  0  0  0  0  0  0  0  0
   -8.2433    8.0511   11.1786 O   0  0  0  0  0  0  0  0  0  0  0  0
   -8.3920    9.3979   11.0610 C   0  0  0  0  0  0  0  0  0  0  0  0
   -8.5633    9.9323    9.7840 C   0  0  0  0  0  0  0  0  0  0  0  0
   -8.5358   11.3217    9.6455 C   0  0  0  0  0  0  0  0  0  0  0  0
   -8.3485   12.1471   10.7804 C   0  0  0  0  0  0  0  0  0  0  0  0
   -8.3525   13.6143   10.6605 C   0  0  0  0  0  0  0  0  0  0  0  0
   -9.0490   14.1432    9.5504 C   0  0  0  0  0  0  0  0  0  0  0  0
   -9.1704   15.5155    9.3389 C   0  0  0  0  0  0  0  0  0  0  0  0
   -8.6434   16.3955   10.2850 C   0  0  0  0  0  0  0  0  0  0  0  0
   -7.9262   15.9089   11.3876 C   0  0  0  0  0  0  0  0  0  0  0  0
   -7.7291   14.5169   11.5751 C   0  0  0  0  0  0  0  0  0  0  0  0
   -6.9432   14.0266   12.6055 O   0  0  0  0  0  0  0  0  0  0  0  0
   -6.2121   14.9593   13.4065 C   0  0  0  0  0  0  0  0  0  0  0  0
   -5.0908   14.3177   14.1996 C   0  0  0  0  0  0  0  0  0  0  0  0
   -4.6647   14.8739   15.4255 C   0  0  0  0  0  0  0  0  0  0  0  0
   -3.5618   14.3249   16.1116 C   0  0  0  0  0  0  0  0  0  0  0  0
   -2.8743   13.2163   15.5679 C   0  0  0  0  0  0  0  0  0  0  0  0
   -1.6447   12.6608   16.2184 C   0  0  0  0  0  0  0  0  0  0  0  0
   -0.5777   12.8003   15.6208 O   0  0  0  0  0  0  0  0  0  0  0  0
   -1.7523   11.9806   17.3860 N   0  0  0  0  0  0  0  0  0  0  0  0
   -0.6218   11.2441   17.9678 C   0  0  0  0  0  0  0  0  0  0  0  0
   -0.2915   11.8125   19.3595 C   0  0  0  0  0  0  0  0  0  0  0  0
   -1.5301   11.7937   20.2747 C   0  0  0  0  0  0  0  0  0  0  0  0
   -2.7577   12.4182   19.5845 C   0  0  0  0  0  0  0  0  0  0  0  0
   -2.9717   11.8121   18.1854 C   0  0  0  0  0  0  0  0  0  0  0  0
   -3.2942   12.6746   14.3363 C   0  0  0  0  0  0  0  0  0  0  0  0
   -4.3993   13.2168   13.6619 C   0  0  0  0  0  0  0  0  0  0  0  0
   -8.2432   11.4951   12.0224 C   0  0  0  0  0  0  0  0  0  0  0  0
   -8.2435   10.1578   12.1660 N   0  0  0  0  0  0  0  0  0  0  0  0
   -8.6609    6.4093   12.2833 H   0  0  0  0  0  0  0  0  0  0  0  0
   -8.2399    7.8479   13.2232 H   0  0  0  0  0  0  0  0  0  0  0  0
   -9.8181    7.7330   12.4165 H   0  0  0  0  0  0  0  0  0  0  0  0
   -8.6600    9.2884    8.9282 H   0  0  0  0  0  0  0  0  0  0  0  0
   -8.6433   11.7232    8.6528 H   0  0  0  0  0  0  0  0  0  0  0  0
   -9.5679   13.5201    8.8416 H   0  0  0  0  0  0  0  0  0  0  0  0
   -9.7268   15.8936    8.4940 H   0  0  0  0  0  0  0  0  0  0  0  0
   -8.8015   17.4563   10.1696 H   0  0  0  0  0  0  0  0  0  0  0  0
   -7.5342   16.6445   12.0722 H   0  0  0  0  0  0  0  0  0  0  0  0
   -6.8958   15.4761   14.0814 H   0  0  0  0  0  0  0  0  0  0  0  0
   -5.7186   15.7033   12.7800 H   0  0  0  0  0  0  0  0  0  0  0  0
   -5.1720   15.7345   15.8376 H   0  0  0  0  0  0  0  0  0  0  0  0
   -3.2369   14.7693   17.0416 H   0  0  0  0  0  0  0  0  0  0  0  0
    0.2709   11.2650   17.3447 H   0  0  0  0  0  0  0  0  0  0  0  0
   -0.8982   10.1908   18.0328 H   0  0  0  0  0  0  0  0  0  0  0  0
    0.0806   12.8329   19.2577 H   0  0  0  0  0  0  0  0  0  0  0  0
    0.5136   11.2364   19.8165 H   0  0  0  0  0  0  0  0  0  0  0  0
   -1.7581   10.7599   20.5379 H   0  0  0  0  0  0  0  0  0  0  0  0
   -1.3192   12.3085   21.2128 H   0  0  0  0  0  0  0  0  0  0  0  0
   -3.6446   12.2621   20.1988 H   0  0  0  0  0  0  0  0  0  0  0  0
   -2.6318   13.4983   19.4985 H   0  0  0  0  0  0  0  0  0  0  0  0
   -3.8433   12.2623   17.7256 H   0  0  0  0  0  0  0  0  0  0  0  0
   -3.1988   10.7495   18.2670 H   0  0  0  0  0  0  0  0  0  0  0  0
   -2.7612   11.8483   13.8894 H   0  0  0  0  0  0  0  0  0  0  0  0
   -4.6999   12.8006   12.7161 H   0  0  0  0  0  0  0  0  0  0  0  0
   -8.1688   12.0458   12.9450 H   0  0  0  0  0  0  0  0  0  0  0  0
  2  1  1  0
  3  2  1  0
  4  3  2  0
  5  4  1  0
  6  5  2  0
  7  6  1  0
  8  7  2  0
  9  8  1  0
 10  9  2  0
 11 10  1  0
 12  7  1  0
 12 11  2  0
 13 12  1  0
 14 13  1  0
 15 14  1  0
 16 15  1  0
 17 16  2  0
 18 17  1  0
 19 18  1  0
 20 19  2  0
 21 19  1  0
 22 21  1  0
 23 22  1  0
 24 23  1  0
 25 24  1  0
 26 21  1  0
 26 25  1  0
 27 18  2  0
 28 15  2  0
 28 27  1  0
 29  6  1  0
 30  3  1  0
 30 29  2  0
 31  1  1  0
 32  1  1  0
 33  1  1  0
 34  4  1  0
 35  5  1  0
 36  8  1  0
 37  9  1  0
 38 10  1  0
 39 11  1  0
 40 14  1  0
 41 14  1  0
 42 16  1  0
 43 17  1  0
 44 22  1  0
 45 22  1  0
 46 23  1  0
 47 23  1  0
 48 24  1  0
 49 24  1  0
 50 25  1  0
 51 25  1  0
 52 26  1  0
 53 26  1  0
 54 27  1  0
 55 28  1  0
 56 29  1  0
M  END
>  <ID>  (23) 
compound_30

>  <series>  (23) 
3

>  <pKi>  (23) 
7.8612

>  <FEP_pKi>  (23) 
8.1158

>  <smiles>  (23) 
COc1ccc(-c2ccccc2OCc2ccc(C(=O)N3CCCCC3)cc2)cn1

$$$$
compound_28
     RDKit          3D

 56 59  0  0  1  0  0  0  0  0999 V2000
  -10.9710    9.8715    8.7990 C   0  0  0  0  0  0  0  0  0  0  0  0
   -9.8102    9.1584    9.2228 O   0  0  0  0  0  0  0  0  0  0  0  0
   -9.0191    9.8130   10.1086 C   0  0  0  0  0  0  0  0  0  0  0  0
   -8.6235   11.1280    9.8604 C   0  0  0  0  0  0  0  0  0  0  0  0
   -8.2791   11.9632   10.9410 C   0  0  0  0  0  0  0  0  0  0  0  0
   -8.2918   13.4314   10.7499 C   0  0  0  0  0  0  0  0  0  0  0  0
   -9.0434   13.9106    9.6457 C   0  0  0  0  0  0  0  0  0  0  0  0
   -9.1827   15.2674    9.3651 C   0  0  0  0  0  0  0  0  0  0  0  0
   -8.6408   16.1957   10.2495 C   0  0  0  0  0  0  0  0  0  0  0  0
   -7.8882   15.7679   11.3546 C   0  0  0  0  0  0  0  0  0  0  0  0
   -7.6685   14.3882   11.6048 C   0  0  0  0  0  0  0  0  0  0  0  0
   -6.8711   13.9537   12.6457 O   0  0  0  0  0  0  0  0  0  0  0  0
   -6.1863   14.9225   13.4392 C   0  0  0  0  0  0  0  0  0  0  0  0
   -5.0398   14.3126   14.2137 C   0  0  0  0  0  0  0  0  0  0  0  0
   -4.2844   13.2837   13.6230 C   0  0  0  0  0  0  0  0  0  0  0  0
   -3.1705   12.7551   14.2882 C   0  0  0  0  0  0  0  0  0  0  0  0
   -2.8118   13.2293   15.5642 C   0  0  0  0  0  0  0  0  0  0  0  0
   -1.5929   12.6599   16.2166 C   0  0  0  0  0  0  0  0  0  0  0  0
   -0.5226   12.7991   15.6217 O   0  0  0  0  0  0  0  0  0  0  0  0
   -1.7185   11.9665   17.3755 N   0  0  0  0  0  0  0  0  0  0  0  0
   -0.5908   11.2491   17.9851 C   0  0  0  0  0  0  0  0  0  0  0  0
   -0.2921   11.8450   19.3724 C   0  0  0  0  0  0  0  0  0  0  0  0
   -1.5464   11.8154   20.2663 C   0  0  0  0  0  0  0  0  0  0  0  0
   -2.7762   12.4000   19.5452 C   0  0  0  0  0  0  0  0  0  0  0  0
   -2.9519   11.7704   18.1505 C   0  0  0  0  0  0  0  0  0  0  0  0
   -3.5532   14.2771   16.1550 C   0  0  0  0  0  0  0  0  0  0  0  0
   -4.6640   14.8191   15.4768 C   0  0  0  0  0  0  0  0  0  0  0  0
   -8.1213   11.3169   12.1842 C   0  0  0  0  0  0  0  0  0  0  0  0
   -8.3512    9.9247   12.2811 C   0  0  0  0  0  0  0  0  0  0  0  0
   -8.8142    9.1778   11.2695 N   0  0  0  0  0  0  0  0  0  0  0  0
  -11.4741    9.2932    8.0234 H   0  0  0  0  0  0  0  0  0  0  0  0
  -11.6682   10.0048    9.6254 H   0  0  0  0  0  0  0  0  0  0  0  0
  -10.7603   10.8486    8.3683 H   0  0  0  0  0  0  0  0  0  0  0  0
   -8.7375   11.4969    8.8564 H   0  0  0  0  0  0  0  0  0  0  0  0
   -9.5974   13.2682    8.9831 H   0  0  0  0  0  0  0  0  0  0  0  0
   -9.7670   15.5972    8.5184 H   0  0  0  0  0  0  0  0  0  0  0  0
   -8.7932   17.2510   10.0796 H   0  0  0  0  0  0  0  0  0  0  0  0
   -7.4890   16.5418   11.9918 H   0  0  0  0  0  0  0  0  0  0  0  0
   -6.8895   15.4037   14.1215 H   0  0  0  0  0  0  0  0  0  0  0  0
   -5.7236   15.6919   12.8186 H   0  0  0  0  0  0  0  0  0  0  0  0
   -4.5424   12.9046   12.6490 H   0  0  0  0  0  0  0  0  0  0  0  0
   -2.5875   11.9884   13.8030 H   0  0  0  0  0  0  0  0  0  0  0  0
    0.3100   11.2607   17.3724 H   0  0  0  0  0  0  0  0  0  0  0  0
   -0.8616   10.1972   18.0737 H   0  0  0  0  0  0  0  0  0  0  0  0
    0.0613   12.8699   19.2596 H   0  0  0  0  0  0  0  0  0  0  0  0
    0.5170   11.2931   19.8516 H   0  0  0  0  0  0  0  0  0  0  0  0
   -1.7563   10.7826   20.5476 H   0  0  0  0  0  0  0  0  0  0  0  0
   -1.3612   12.3538   21.1966 H   0  0  0  0  0  0  0  0  0  0  0  0
   -3.6714   12.2368   20.1463 H   0  0  0  0  0  0  0  0  0  0  0  0
   -2.6663   13.4803   19.4461 H   0  0  0  0  0  0  0  0  0  0  0  0
   -3.8406   12.1724   17.6714 H   0  0  0  0  0  0  0  0  0  0  0  0
   -3.1421   10.7012   18.2455 H   0  0  0  0  0  0  0  0  0  0  0  0
   -3.2708   14.6744   17.1201 H   0  0  0  0  0  0  0  0  0  0  0  0
   -5.2235   15.6262   15.9266 H   0  0  0  0  0  0  0  0  0  0  0  0
   -7.8699   11.8757   13.0714 H   0  0  0  0  0  0  0  0  0  0  0  0
   -8.2456    9.4070   13.2222 H   0  0  0  0  0  0  0  0  0  0  0  0
  2  1  1  0
  3  2  1  0
  4  3  2  0
  5  4  1  0
  6  5  1  0
  7  6  2  0
  8  7  1  0
  9  8  2  0
 10  9  1  0
 11  6  1  0
 11 10  2  0
 12 11  1  0
 13 12  1  0
 14 13  1  0
 15 14  1  0
 16 15  2  0
 17 16  1  0
 18 17  1  0
 19 18  2  0
 20 18  1  0
 21 20  1  0
 22 21  1  0
 23 22  1  0
 24 23  1  0
 25 20  1  0
 25 24  1  0
 26 17  2  0
 27 14  2  0
 27 26  1  0
 28  5  2  0
 29 28  1  0
 30  3  1  0
 30 29  2  0
 31  1  1  0
 32  1  1  0
 33  1  1  0
 34  4  1  0
 35  7  1  0
 36  8  1  0
 37  9  1  0
 38 10  1  0
 39 13  1  0
 40 13  1  0
 41 15  1  0
 42 16  1  0
 43 21  1  0
 44 21  1  0
 45 22  1  0
 46 22  1  0
 47 23  1  0
 48 23  1  0
 49 24  1  0
 50 24  1  0
 51 25  1  0
 52 25  1  0
 53 26  1  0
 54 27  1  0
 55 28  1  0
 56 29  1  0
M  END
>  <ID>  (24) 
compound_28

>  <series>  (24) 
3

>  <pKi>  (24) 
9.0474

>  <FEP_pKi>  (24) 
9.2229

>  <smiles>  (24) 
COc1cc(-c2ccccc2OCc2ccc(C(=O)N3CCCCC3)cc2)ccn1

$$$$
compound_37
     RDKit          3D

 49 52  0  0  1  0  0  0  0  0999 V2000
   -0.4430   12.7329   15.4644 O   0  0  0  0  0  0  0  0  0  0  0  0
   -1.5013   12.6462   16.0934 C   0  0  0  0  0  0  0  0  0  0  0  0
   -2.7209   13.2851   15.5035 C   0  0  0  0  0  0  0  0  0  0  0  0
   -3.3896   14.3418   16.1637 C   0  0  0  0  0  0  0  0  0  0  0  0
   -4.5328   14.9270   15.5850 C   0  0  0  0  0  0  0  0  0  0  0  0
   -5.0151   14.4477   14.3501 C   0  0  0  0  0  0  0  0  0  0  0  0
   -6.2260   15.0578   13.6932 C   0  0  0  0  0  0  0  0  0  0  0  0
   -7.0693   14.0748   13.0949 O   0  0  0  0  0  0  0  0  0  0  0  0
   -7.6641   14.3285   11.8699 C   0  0  0  0  0  0  0  0  0  0  0  0
   -7.6287   15.6675   11.4139 C   0  0  0  0  0  0  0  0  0  0  0  0
   -8.2369   16.0393   10.2004 C   0  0  0  0  0  0  0  0  0  0  0  0
   -8.8689   15.0710    9.4055 C   0  0  0  0  0  0  0  0  0  0  0  0
   -8.8781   13.7323    9.8250 C   0  0  0  0  0  0  0  0  0  0  0  0
   -8.2890   13.3492   11.0488 C   0  0  0  0  0  0  0  0  0  0  0  0
   -8.3470   11.9498   11.4158 C   0  0  0  0  0  0  0  0  0  0  0  0
   -8.8114   10.8306   10.7336 C   0  0  0  0  0  0  0  0  0  0  0  0
   -8.8639    9.7015   11.6035 C   0  0  0  0  0  0  0  0  0  0  0  0
   -8.2304    9.8185   12.7660 N   0  0  0  0  0  0  0  0  0  0  0  0
   -7.6591   11.3935   12.9175 S   0  0  0  0  0  0  0  0  0  0  0  0
   -4.3150   13.4336   13.6668 C   0  0  0  0  0  0  0  0  0  0  0  0
   -3.1772   12.8498   14.2436 C   0  0  0  0  0  0  0  0  0  0  0  0
   -1.6229   11.9719   17.2648 N   0  0  0  0  0  0  0  0  0  0  0  0
   -2.8598   11.7746   18.0324 C   0  0  0  0  0  0  0  0  0  0  0  0
   -2.7136   12.4347   19.4170 C   0  0  0  0  0  0  0  0  0  0  0  0
   -1.4685   11.9113   20.1612 C   0  0  0  0  0  0  0  0  0  0  0  0
   -0.2128   11.9279   19.2694 C   0  0  0  0  0  0  0  0  0  0  0  0
   -0.4963   11.2824   17.9014 C   0  0  0  0  0  0  0  0  0  0  0  0
   -3.0357   14.6998   17.1203 H   0  0  0  0  0  0  0  0  0  0  0  0
   -5.0367   15.7341   16.0975 H   0  0  0  0  0  0  0  0  0  0  0  0
   -6.7690   15.6943   14.3923 H   0  0  0  0  0  0  0  0  0  0  0  0
   -5.7000   15.4321   13.0018 H   0  0  0  0  0  0  0  0  0  0  0  0
   -7.1355   16.4363   11.9904 H   0  0  0  0  0  0  0  0  0  0  0  0
   -8.2144   17.0680    9.8749 H   0  0  0  0  0  0  0  0  0  0  0  0
   -9.3404   15.3504    8.4751 H   0  0  0  0  0  0  0  0  0  0  0  0
   -9.3553   12.9897    9.2006 H   0  0  0  0  0  0  0  0  0  0  0  0
   -9.3726   10.8330    9.7977 H   0  0  0  0  0  0  0  0  0  0  0  0
   -9.2193    8.7263   11.2611 H   0  0  0  0  0  0  0  0  0  0  0  0
   -4.6541   13.1010   12.6974 H   0  0  0  0  0  0  0  0  0  0  0  0
   -2.6596   12.0626   13.7148 H   0  0  0  0  0  0  0  0  0  0  0  0
   -3.0382   10.7038   18.1408 H   0  0  0  0  0  0  0  0  0  0  0  0
   -3.7428   12.1618   17.5291 H   0  0  0  0  0  0  0  0  0  0  0  0
   -3.6088   12.2571   20.0150 H   0  0  0  0  0  0  0  0  0  0  0  0
   -2.6393   13.5162   19.2964 H   0  0  0  0  0  0  0  0  0  0  0  0
   -1.2917   12.5038   21.0594 H   0  0  0  0  0  0  0  0  0  0  0  0
   -1.6527   10.8898   20.4976 H   0  0  0  0  0  0  0  0  0  0  0  0
    0.1230   12.9550   19.1256 H   0  0  0  0  0  0  0  0  0  0  0  0
    0.6044   11.4061   19.7687 H   0  0  0  0  0  0  0  0  0  0  0  0
   -0.7544   10.2297   18.0227 H   0  0  0  0  0  0  0  0  0  0  0  0
    0.4025   11.2940   17.2868 H   0  0  0  0  0  0  0  0  0  0  0  0
  2  1  2  0
  3  2  1  0
  4  3  1  0
  5  4  2  0
  6  5  1  0
  7  6  1  0
  8  7  1  0
  9  8  1  0
 10  9  2  0
 11 10  1  0
 12 11  2  0
 13 12  1  0
 14  9  1  0
 14 13  2  0
 15 14  1  0
 16 15  2  0
 17 16  1  0
 18 17  2  0
 19 15  1  0
 19 18  1  0
 20  6  2  0
 21  3  2  0
 21 20  1  0
 22  2  1  0
 23 22  1  0
 24 23  1  0
 25 24  1  0
 26 25  1  0
 27 22  1  0
 27 26  1  0
 28  4  1  0
 29  5  1  0
 30  7  1  0
 31  7  1  0
 32 10  1  0
 33 11  1  0
 34 12  1  0
 35 13  1  0
 36 16  1  0
 37 17  1  0
 38 20  1  0
 39 21  1  0
 40 23  1  0
 41 23  1  0
 42 24  1  0
 43 24  1  0
 44 25  1  0
 45 25  1  0
 46 26  1  0
 47 26  1  0
 48 27  1  0
 49 27  1  0
M  END
>  <ID>  (25) 
compound_37

>  <series>  (25) 
3

>  <pKi>  (25) 
9.1901

>  <FEP_pKi>  (25) 
9.1202

>  <smiles>  (25) 
O=C(c1ccc(COc2ccccc2-c2ccns2)cc1)N1CCCCC1

$$$$
compound_29
     RDKit          3D

 65 69  0  0  1  0  0  0  0  0999 V2000
   -0.4396   12.7288   15.4609 O   0  0  0  0  0  0  0  0  0  0  0  0
   -1.4985   12.6440   16.0916 C   0  0  0  0  0  0  0  0  0  0  0  0
   -2.7214   13.2852   15.5040 C   0  0  0  0  0  0  0  0  0  0  0  0
   -3.1810   12.8495   14.2443 C   0  0  0  0  0  0  0  0  0  0  0  0
   -4.3162   13.4367   13.6654 C   0  0  0  0  0  0  0  0  0  0  0  0
   -5.0085   14.4637   14.3382 C   0  0  0  0  0  0  0  0  0  0  0  0
   -6.2142   15.0907   13.6624 C   0  0  0  0  0  0  0  0  0  0  0  0
   -7.0611   14.0932   13.0869 O   0  0  0  0  0  0  0  0  0  0  0  0
   -7.6643   14.3280   11.8679 C   0  0  0  0  0  0  0  0  0  0  0  0
   -7.7443   15.5982   11.2476 C   0  0  0  0  0  0  0  0  0  0  0  0
   -8.3557   15.7423    9.9890 C   0  0  0  0  0  0  0  0  0  0  0  0
   -8.8932   14.6291    9.3255 C   0  0  0  0  0  0  0  0  0  0  0  0
   -8.8411   13.3666    9.9398 C   0  0  0  0  0  0  0  0  0  0  0  0
   -8.2433   13.2205   11.2062 C   0  0  0  0  0  0  0  0  0  0  0  0
   -8.1833   11.8661   11.8482 C   0  0  0  0  0  0  0  0  0  0  0  0
   -7.6759   11.7147   13.1385 C   0  0  0  0  0  0  0  0  0  0  0  0
   -7.6299   10.4463   13.7147 C   0  0  0  0  0  0  0  0  0  0  0  0
   -8.0649    9.3397   13.0610 N   0  0  0  0  0  0  0  0  0  0  0  0
   -8.5568    9.5014   11.8049 C   0  0  0  0  0  0  0  0  0  0  0  0
   -9.0188    8.2969   11.1214 N   0  0  0  0  0  0  0  0  0  0  0  0
   -7.9032    7.3594   10.9491 C   0  0  0  0  0  0  0  0  0  0  0  0
   -8.3736    6.0274   10.3132 C   0  0  0  0  0  0  0  0  0  0  0  0
   -9.4477    5.4459   11.0608 O   0  0  0  0  0  0  0  0  0  0  0  0
  -10.5547    6.3357   11.2442 C   0  0  0  0  0  0  0  0  0  0  0  0
  -10.1019    7.6702   11.8877 C   0  0  0  0  0  0  0  0  0  0  0  0
   -8.6334   10.7381   11.1657 C   0  0  0  0  0  0  0  0  0  0  0  0
   -4.5337   14.9285   15.5838 C   0  0  0  0  0  0  0  0  0  0  0  0
   -3.3926   14.3417   16.1645 C   0  0  0  0  0  0  0  0  0  0  0  0
   -1.6238   11.9706   17.2624 N   0  0  0  0  0  0  0  0  0  0  0  0
   -2.8629   11.7729   18.0364 C   0  0  0  0  0  0  0  0  0  0  0  0
   -2.7145   12.4351   19.4184 C   0  0  0  0  0  0  0  0  0  0  0  0
   -1.4720   11.9114   20.1609 C   0  0  0  0  0  0  0  0  0  0  0  0
   -0.2117   11.9266   19.2691 C   0  0  0  0  0  0  0  0  0  0  0  0
   -0.4955   11.2809   17.9027 C   0  0  0  0  0  0  0  0  0  0  0  0
   -2.6589   12.0711   13.7056 H   0  0  0  0  0  0  0  0  0  0  0  0
   -4.6538   13.1012   12.6954 H   0  0  0  0  0  0  0  0  0  0  0  0
   -6.7876   15.6740   14.3858 H   0  0  0  0  0  0  0  0  0  0  0  0
   -5.8787   15.7772   12.8825 H   0  0  0  0  0  0  0  0  0  0  0  0
   -7.3501   16.4819   11.7257 H   0  0  0  0  0  0  0  0  0  0  0  0
   -8.4200   16.7164    9.5270 H   0  0  0  0  0  0  0  0  0  0  0  0
   -9.3401   14.7450    8.3492 H   0  0  0  0  0  0  0  0  0  0  0  0
   -9.2547   12.5185    9.4133 H   0  0  0  0  0  0  0  0  0  0  0  0
   -7.3201   12.5746   13.6895 H   0  0  0  0  0  0  0  0  0  0  0  0
   -7.2389   10.3099   14.7160 H   0  0  0  0  0  0  0  0  0  0  0  0
   -7.1371    7.8171   10.3202 H   0  0  0  0  0  0  0  0  0  0  0  0
   -7.4177    7.1619   11.9075 H   0  0  0  0  0  0  0  0  0  0  0  0
   -8.6731    6.1853    9.2750 H   0  0  0  0  0  0  0  0  0  0  0  0
   -7.5424    5.3220   10.2784 H   0  0  0  0  0  0  0  0  0  0  0  0
  -11.0561    6.5222   10.2923 H   0  0  0  0  0  0  0  0  0  0  0  0
  -11.2968    5.8527   11.8811 H   0  0  0  0  0  0  0  0  0  0  0  0
   -9.7900    7.4973   12.9202 H   0  0  0  0  0  0  0  0  0  0  0  0
  -10.9493    8.3560   11.9476 H   0  0  0  0  0  0  0  0  0  0  0  0
   -9.0330   10.8182   10.1639 H   0  0  0  0  0  0  0  0  0  0  0  0
   -5.0381   15.7362   16.0941 H   0  0  0  0  0  0  0  0  0  0  0  0
   -3.0406   14.7110   17.1174 H   0  0  0  0  0  0  0  0  0  0  0  0
   -3.7693   12.0715   17.5177 H   0  0  0  0  0  0  0  0  0  0  0  0
   -2.9871   10.6966   18.1647 H   0  0  0  0  0  0  0  0  0  0  0  0
   -2.6656   13.5193   19.3056 H   0  0  0  0  0  0  0  0  0  0  0  0
   -3.6089   12.2416   20.0113 H   0  0  0  0  0  0  0  0  0  0  0  0
   -1.2978   12.4953   21.0651 H   0  0  0  0  0  0  0  0  0  0  0  0
   -1.6588   10.8879   20.4892 H   0  0  0  0  0  0  0  0  0  0  0  0
    0.1435   12.9499   19.1383 H   0  0  0  0  0  0  0  0  0  0  0  0
    0.5990   11.3973   19.7705 H   0  0  0  0  0  0  0  0  0  0  0  0
   -0.7959   10.2422   18.0471 H   0  0  0  0  0  0  0  0  0  0  0  0
    0.3770   11.2168   17.2502 H   0  0  0  0  0  0  0  0  0  0  0  0
  2  1  2  0
  3  2  1  0
  4  3  1  0
  5  4  2  0
  6  5  1  0
  7  6  1  0
  8  7  1  0
  9  8  1  0
 10  9  2  0
 11 10  1  0
 12 11  2  0
 13 12  1  0
 14  9  1  0
 14 13  2  0
 15 14  1  0
 16 15  2  0
 17 16  1  0
 18 17  2  0
 19 18  1  0
 20 19  1  0
 21 20  1  0
 22 21  1  0
 23 22  1  0
 24 23  1  0
 25 20  1  0
 25 24  1  0
 26 15  1  0
 26 19  2  0
 27  6  2  0
 28  3  2  0
 28 27  1  0
 29  2  1  0
 30 29  1  0
 31 30  1  0
 32 31  1  0
 33 32  1  0
 34 29  1  0
 34 33  1  0
 35  4  1  0
 36  5  1  0
 37  7  1  0
 38  7  1  0
 39 10  1  0
 40 11  1  0
 41 12  1  0
 42 13  1  0
 43 16  1  0
 44 17  1  0
 45 21  1  0
 46 21  1  0
 47 22  1  0
 48 22  1  0
 49 24  1  0
 50 24  1  0
 51 25  1  0
 52 25  1  0
 53 26  1  0
 54 27  1  0
 55 28  1  0
 56 30  1  0
 57 30  1  0
 58 31  1  0
 59 31  1  0
 60 32  1  0
 61 32  1  0
 62 33  1  0
 63 33  1  0
 64 34  1  0
 65 34  1  0
M  END
>  <ID>  (26) 
compound_29

>  <series>  (26) 
3

>  <pKi>  (26) 
7.9565

>  <FEP_pKi>  (26) 
8.0205

>  <smiles>  (26) 
O=C(c1ccc(COc2ccccc2-c2ccnc(N3CCOCC3)c2)cc1)N1CCCCC1

$$$$
compound_14
     RDKit          3D

 52 56  0  0  1  0  0  0  0  0999 V2000
   -9.6688   14.3146    7.3854 C   0  0  0  0  0  0  0  0  0  0  0  0
   -9.1133   14.1874    8.7281 N   0  0  0  0  0  0  0  0  0  0  0  0
   -8.4949   15.2476    9.3193 N   0  0  0  0  0  0  0  0  0  0  0  0
   -8.0863   14.7575   10.4434 C   0  0  0  0  0  0  0  0  0  0  0  0
   -7.3012   15.2926   11.5366 C   0  0  0  0  0  0  0  0  0  0  0  0
   -6.9611   14.5372   12.6163 C   0  0  0  0  0  0  0  0  0  0  0  0
   -7.4044   13.1451   12.6751 C   0  0  0  0  0  0  0  0  0  0  0  0
   -8.1374   12.6277   11.6735 C   0  0  0  0  0  0  0  0  0  0  0  0
   -8.4606   13.4327   10.5771 N   0  0  0  0  0  0  0  0  0  0  0  0
   -9.0789   13.0720    9.4625 C   0  0  0  0  0  0  0  0  0  0  0  0
   -9.5178   11.9607    9.1665 O   0  0  0  0  0  0  0  0  0  0  0  0
   -6.3140   15.1747   13.8144 C   0  0  0  0  0  0  0  0  0  0  0  0
   -7.3105   15.6936   14.8357 C   0  0  0  0  0  0  0  0  0  0  0  0
   -6.4791   16.6796   14.0649 C   0  0  0  0  0  0  0  0  0  0  0  0
   -5.0383   14.4923   14.3309 C   0  0  0  0  0  0  0  0  0  0  0  0
   -4.5037   14.9204   15.5777 C   0  0  0  0  0  0  0  0  0  0  0  0
   -3.3666   14.3197   16.1421 C   0  0  0  0  0  0  0  0  0  0  0  0
   -2.7324   13.2526   15.4807 C   0  0  0  0  0  0  0  0  0  0  0  0
   -3.1944   12.8543   14.2134 C   0  0  0  0  0  0  0  0  0  0  0  0
   -4.3213   13.4732   13.6461 C   0  0  0  0  0  0  0  0  0  0  0  0
   -1.5231   12.6028   16.0661 C   0  0  0  0  0  0  0  0  0  0  0  0
   -0.4807   12.6727   15.4195 O   0  0  0  0  0  0  0  0  0  0  0  0
   -1.6314   11.9522   17.2511 N   0  0  0  0  0  0  0  0  0  0  0  0
   -2.8633   11.7890   18.0364 C   0  0  0  0  0  0  0  0  0  0  0  0
   -2.6846   12.4756   19.3985 C   0  0  0  0  0  0  0  0  0  0  0  0
   -1.4572   11.9053   20.1326 C   0  0  0  0  0  0  0  0  0  0  0  0
   -1.2269   12.6278   21.2288 F   0  0  0  0  0  0  0  0  0  0  0  0
   -1.7304   10.6514   20.5020 F   0  0  0  0  0  0  0  0  0  0  0  0
   -0.2007   11.8984   19.2451 C   0  0  0  0  0  0  0  0  0  0  0  0
   -0.4895   11.2660   17.8726 C   0  0  0  0  0  0  0  0  0  0  0  0
   -8.8899   14.1919    6.6367 H   0  0  0  0  0  0  0  0  0  0  0  0
  -10.4255   13.5540    7.1905 H   0  0  0  0  0  0  0  0  0  0  0  0
  -10.1386   15.2859    7.2424 H   0  0  0  0  0  0  0  0  0  0  0  0
   -7.0010   16.3257   11.5114 H   0  0  0  0  0  0  0  0  0  0  0  0
   -7.1554   12.5346   13.5316 H   0  0  0  0  0  0  0  0  0  0  0  0
   -8.5274   11.6194   11.6546 H   0  0  0  0  0  0  0  0  0  0  0  0
   -8.3649   15.6227   14.5821 H   0  0  0  0  0  0  0  0  0  0  0  0
   -7.1018   15.5931   15.8958 H   0  0  0  0  0  0  0  0  0  0  0  0
   -5.6998   17.2119   14.6062 H   0  0  0  0  0  0  0  0  0  0  0  0
   -7.0433   17.3086   13.3811 H   0  0  0  0  0  0  0  0  0  0  0  0
   -4.9552   15.7263   16.1353 H   0  0  0  0  0  0  0  0  0  0  0  0
   -2.9933   14.6810   17.0902 H   0  0  0  0  0  0  0  0  0  0  0  0
   -2.6895   12.0716   13.6607 H   0  0  0  0  0  0  0  0  0  0  0  0
   -4.6427   13.1526   12.6675 H   0  0  0  0  0  0  0  0  0  0  0  0
   -3.7551   12.1618   17.5443 H   0  0  0  0  0  0  0  0  0  0  0  0
   -3.0415   10.7270   18.1781 H   0  0  0  0  0  0  0  0  0  0  0  0
   -2.5653   13.5515   19.2577 H   0  0  0  0  0  0  0  0  0  0  0  0
   -3.5795   12.3434   20.0080 H   0  0  0  0  0  0  0  0  0  0  0  0
    0.1541   12.9176   19.0944 H   0  0  0  0  0  0  0  0  0  0  0  0
    0.6058   11.3603   19.7454 H   0  0  0  0  0  0  0  0  0  0  0  0
   -0.7360   10.2095   17.9714 H   0  0  0  0  0  0  0  0  0  0  0  0
    0.4127   11.2903   17.2611 H   0  0  0  0  0  0  0  0  0  0  0  0
  2  1  1  0
  3  2  1  0
  4  3  2  0
  5  4  1  0
  6  5  2  0
  7  6  1  0
  8  7  2  0
  9  4  1  0
  9  8  1  0
 10  2  1  0
 10  9  1  0
 11 10  2  0
 12  6  1  0
 13 12  1  0
 14 12  1  0
 14 13  1  0
 15 12  1  0
 16 15  1  0
 17 16  2  0
 18 17  1  0
 19 18  2  0
 20 15  2  0
 20 19  1  0
 21 18  1  0
 22 21  2  0
 23 21  1  0
 24 23  1  0
 25 24  1  0
 26 25  1  0
 27 26  1  0
 28 26  1  0
 29 26  1  0
 30 23  1  0
 30 29  1  0
 31  1  1  0
 32  1  1  0
 33  1  1  0
 34  5  1  0
 35  7  1  0
 36  8  1  0
 37 13  1  0
 38 13  1  0
 39 14  1  0
 40 14  1  0
 41 16  1  0
 42 17  1  0
 43 19  1  0
 44 20  1  0
 45 24  1  0
 46 24  1  0
 47 25  1  0
 48 25  1  0
 49 29  1  0
 50 29  1  0
 51 30  1  0
 52 30  1  0
M  END
>  <ID>  (27) 
compound_14

>  <series>  (27) 
1

>  <pKi>  (27) 
9.5000

>  <FEP_pKi>  (27) 
7.6000

>  <smiles>  (27) 
Cn1nc2cc(C3(c4ccc(C(=O)N5CCC(F)(F)CC5)cc4)CC3)ccn2c1=O

$$$$
compound_47
     RDKit          3D

 52 58  0  0  1  0  0  0  0  0999 V2000
   -9.9185   14.5136    7.3291 C   0  0  0  0  0  0  0  0  0  0  0  0
   -9.2313   14.3158    8.6073 N   0  0  0  0  0  0  0  0  0  0  0  0
   -8.6757   15.3776    9.2373 N   0  0  0  0  0  0  0  0  0  0  0  0
   -8.2424   14.8626   10.3417 C   0  0  0  0  0  0  0  0  0  0  0  0
   -7.5845   15.4499   11.4799 C   0  0  0  0  0  0  0  0  0  0  0  0
   -7.3030   14.6931   12.5668 C   0  0  0  0  0  0  0  0  0  0  0  0
   -7.5958   13.2506   12.5386 C   0  0  0  0  0  0  0  0  0  0  0  0
   -8.1673   12.6935   11.4753 C   0  0  0  0  0  0  0  0  0  0  0  0
   -8.4985   13.4992   10.3830 N   0  0  0  0  0  0  0  0  0  0  0  0
   -9.1275   13.1576    9.2717 C   0  0  0  0  0  0  0  0  0  0  0  0
   -9.5237   12.0486    8.9186 O   0  0  0  0  0  0  0  0  0  0  0  0
   -6.7387   15.2933   13.6755 N   0  0  0  0  0  0  0  0  0  0  0  0
   -7.5384   16.1850   14.5179 C   0  0  0  0  0  0  0  0  0  0  0  0
   -6.6435   17.1441   15.3347 C   0  0  0  0  0  0  0  0  0  0  0  0
   -5.8046   16.3808   16.1872 O   0  0  0  0  0  0  0  0  0  0  0  0
   -5.1690   15.3439   15.5599 C   0  0  0  0  0  0  0  0  0  0  0  0
   -4.0705   14.7741   16.2337 C   0  0  0  0  0  0  0  0  0  0  0  0
   -3.3844   13.7097   15.6192 C   0  0  0  0  0  0  0  0  0  0  0  0
   -3.7334   13.2322   14.3478 C   0  0  0  0  0  0  0  0  0  0  0  0
   -4.8180   13.8068   13.6889 C   0  0  0  0  0  0  0  0  0  0  0  0
   -5.5691   14.8270   14.3124 C   0  0  0  0  0  0  0  0  0  0  0  0
   -2.2916   13.0641   16.2801 C   0  0  0  0  0  0  0  0  0  0  0  0
   -1.2203   12.7227   15.5614 N   0  0  0  0  0  0  0  0  0  0  0  0
   -0.4851   11.9461   16.3919 N   0  0  0  0  0  0  0  0  0  0  0  0
   -1.0676   11.9999   17.5554 C   0  0  0  0  0  0  0  0  0  0  0  0
   -0.7278   11.4819   18.8762 C   0  0  0  0  0  0  0  0  0  0  0  0
   -1.8331   12.0447   19.7569 C   0  0  0  0  0  0  0  0  0  0  0  0
   -2.8748   12.7168   18.8296 C   0  0  0  0  0  0  0  0  0  0  0  0
   -2.1989   12.6699   17.5618 N   0  0  0  0  0  0  0  0  0  0  0  0
   -2.2236   11.3168   21.0046 C   0  0  0  0  0  0  0  0  0  0  0  0
   -1.4982   12.6378   21.1027 C   0  0  0  0  0  0  0  0  0  0  0  0
  -10.9823   14.2578    7.4247 H   0  0  0  0  0  0  0  0  0  0  0  0
   -9.4742   13.8884    6.5492 H   0  0  0  0  0  0  0  0  0  0  0  0
   -9.8450   15.5524    7.0044 H   0  0  0  0  0  0  0  0  0  0  0  0
   -7.3539   16.4989   11.5103 H   0  0  0  0  0  0  0  0  0  0  0  0
   -7.3273   12.6281   13.3850 H   0  0  0  0  0  0  0  0  0  0  0  0
   -8.4193   11.6513   11.3823 H   0  0  0  0  0  0  0  0  0  0  0  0
   -8.2131   16.7609   13.8954 H   0  0  0  0  0  0  0  0  0  0  0  0
   -8.1717   15.6010   15.1859 H   0  0  0  0  0  0  0  0  0  0  0  0
   -6.0694   17.7682   14.6586 H   0  0  0  0  0  0  0  0  0  0  0  0
   -7.2587   17.8113   15.9354 H   0  0  0  0  0  0  0  0  0  0  0  0
   -3.7700   15.1336   17.2059 H   0  0  0  0  0  0  0  0  0  0  0  0
   -3.1862   12.4162   13.8785 H   0  0  0  0  0  0  0  0  0  0  0  0
   -5.0671   13.4230   12.7174 H   0  0  0  0  0  0  0  0  0  0  0  0
   -0.7979   10.4034   18.8418 H   0  0  0  0  0  0  0  0  0  0  0  0
    0.2552   11.8052   19.2210 H   0  0  0  0  0  0  0  0  0  0  0  0
   -3.0767   13.7533   19.1200 H   0  0  0  0  0  0  0  0  0  0  0  0
   -3.7968   12.1477   18.7880 H   0  0  0  0  0  0  0  0  0  0  0  0
   -3.2905   11.2725   21.2293 H   0  0  0  0  0  0  0  0  0  0  0  0
   -1.6773   10.4074   21.2146 H   0  0  0  0  0  0  0  0  0  0  0  0
   -0.4481   12.6287   21.4148 H   0  0  0  0  0  0  0  0  0  0  0  0
   -2.0552   13.5180   21.3969 H   0  0  0  0  0  0  0  0  0  0  0  0
  2  1  1  0
  3  2  1  0
  4  3  2  0
  5  4  1  0
  6  5  2  0
  7  6  1  0
  8  7  2  0
  9  4  1  0
  9  8  1  0
 10  2  1  0
 10  9  1  0
 11 10  2  0
 12  6  1  0
 13 12  1  0
 14 13  1  0
 15 14  1  0
 16 15  1  0
 17 16  1  0
 18 17  2  0
 19 18  1  0
 20 19  2  0
 21 12  1  0
 21 16  2  0
 21 20  1  0
 22 18  1  0
 23 22  2  0
 24 23  1  0
 25 24  2  0
 26 25  1  0
 27 26  1  0
 28 27  1  0
 29 22  1  0
 29 25  1  0
 29 28  1  0
 30 27  1  0
 31 27  1  0
 31 30  1  0
 32  1  1  0
 33  1  1  0
 34  1  1  0
 35  5  1  0
 36  7  1  0
 37  8  1  0
 38 13  1  0
 39 13  1  0
 40 14  1  0
 41 14  1  0
 42 17  1  0
 43 19  1  0
 44 20  1  0
 45 26  1  0
 46 26  1  0
 47 28  1  0
 48 28  1  0
 49 30  1  0
 50 30  1  0
 51 31  1  0
 52 31  1  0
M  END
>  <ID>  (28) 
compound_47

>  <series>  (28) 
4_5

>  <pKi>  (28) 
8.7321

>  <FEP_pKi>  (28) 
8.8069

>  <smiles>  (28) 
Cn1nc2cc(N3CCOc4cc(-c5nnc6n5CC5(CC5)C6)ccc43)ccn2c1=O

$$$$
compound_38
     RDKit          3D

 49 52  0  0  1  0  0  0  0  0999 V2000
   -0.4596   12.7703   15.4802 O   0  0  0  0  0  0  0  0  0  0  0  0
   -1.5225   12.6595   16.1011 C   0  0  0  0  0  0  0  0  0  0  0  0
   -2.7443   13.2863   15.5032 C   0  0  0  0  0  0  0  0  0  0  0  0
   -3.4166   14.3467   16.1548 C   0  0  0  0  0  0  0  0  0  0  0  0
   -4.5491   14.9393   15.5591 C   0  0  0  0  0  0  0  0  0  0  0  0
   -5.0118   14.4834   14.3051 C   0  0  0  0  0  0  0  0  0  0  0  0
   -6.2077   15.1158   13.6277 C   0  0  0  0  0  0  0  0  0  0  0  0
   -7.0518   14.1241   13.0563 O   0  0  0  0  0  0  0  0  0  0  0  0
   -7.6828   14.3412   11.8429 C   0  0  0  0  0  0  0  0  0  0  0  0
   -7.7848   15.6231   11.2518 C   0  0  0  0  0  0  0  0  0  0  0  0
   -8.3817   15.7849    9.9878 C   0  0  0  0  0  0  0  0  0  0  0  0
   -8.8994   14.6707    9.3071 C   0  0  0  0  0  0  0  0  0  0  0  0
   -8.8457   13.4060    9.9093 C   0  0  0  0  0  0  0  0  0  0  0  0
   -8.2439   13.2284   11.1577 C   0  0  0  0  0  0  0  0  0  0  0  0
   -8.2155   11.8413   11.5105 C   0  0  0  0  0  0  0  0  0  0  0  0
   -8.6422   10.6829   10.7749 C   0  0  0  0  0  0  0  0  0  0  0  0
   -8.6106    9.5987   11.5207 N   0  0  0  0  0  0  0  0  0  0  0  0
   -8.0888   10.0391   12.7200 O   0  0  0  0  0  0  0  0  0  0  0  0
   -7.7433   11.3585   12.6461 C   0  0  0  0  0  0  0  0  0  0  0  0
   -4.3198   13.4472   13.6465 C   0  0  0  0  0  0  0  0  0  0  0  0
   -3.1927   12.8522   14.2389 C   0  0  0  0  0  0  0  0  0  0  0  0
   -1.6362   11.9726   17.2662 N   0  0  0  0  0  0  0  0  0  0  0  0
   -2.8680   11.7699   18.0411 C   0  0  0  0  0  0  0  0  0  0  0  0
   -2.7150   12.4365   19.4208 C   0  0  0  0  0  0  0  0  0  0  0  0
   -1.4707   11.9068   20.1608 C   0  0  0  0  0  0  0  0  0  0  0  0
   -0.2158   11.9303   19.2663 C   0  0  0  0  0  0  0  0  0  0  0  0
   -0.5021   11.2858   17.8991 C   0  0  0  0  0  0  0  0  0  0  0  0
   -3.0659   14.7079   17.1116 H   0  0  0  0  0  0  0  0  0  0  0  0
   -5.0566   15.7458   16.0691 H   0  0  0  0  0  0  0  0  0  0  0  0
   -6.7764   15.7136   14.3388 H   0  0  0  0  0  0  0  0  0  0  0  0
   -5.7820   15.8047   12.8855 H   0  0  0  0  0  0  0  0  0  0  0  0
   -7.4072   16.5092   11.7371 H   0  0  0  0  0  0  0  0  0  0  0  0
   -8.4419   16.7642    9.5406 H   0  0  0  0  0  0  0  0  0  0  0  0
   -9.3664   14.7985    8.3406 H   0  0  0  0  0  0  0  0  0  0  0  0
   -9.2803   12.6086    9.3235 H   0  0  0  0  0  0  0  0  0  0  0  0
   -9.0750   10.5904    9.8076 H   0  0  0  0  0  0  0  0  0  0  0  0
   -7.1931   11.8084   13.4621 H   0  0  0  0  0  0  0  0  0  0  0  0
   -4.6544   13.1133   12.6767 H   0  0  0  0  0  0  0  0  0  0  0  0
   -2.6738   12.0607   13.7151 H   0  0  0  0  0  0  0  0  0  0  0  0
   -3.0352   10.6995   18.1621 H   0  0  0  0  0  0  0  0  0  0  0  0
   -3.7646   12.1366   17.5459 H   0  0  0  0  0  0  0  0  0  0  0  0
   -3.6072   12.2598   20.0224 H   0  0  0  0  0  0  0  0  0  0  0  0
   -2.6403   13.5178   19.2975 H   0  0  0  0  0  0  0  0  0  0  0  0
   -1.2968   12.4842   21.0695 H   0  0  0  0  0  0  0  0  0  0  0  0
   -1.6581   10.8808   20.4818 H   0  0  0  0  0  0  0  0  0  0  0  0
    0.1212   12.9567   19.1202 H   0  0  0  0  0  0  0  0  0  0  0  0
    0.6018   11.4051   19.7620 H   0  0  0  0  0  0  0  0  0  0  0  0
   -0.7529   10.2328   18.0277 H   0  0  0  0  0  0  0  0  0  0  0  0
    0.3981   11.2907   17.2854 H   0  0  0  0  0  0  0  0  0  0  0  0
  2  1  2  0
  3  2  1  0
  4  3  1  0
  5  4  2  0
  6  5  1  0
  7  6  1  0
  8  7  1  0
  9  8  1  0
 10  9  2  0
 11 10  1  0
 12 11  2  0
 13 12  1  0
 14  9  1  0
 14 13  2  0
 15 14  1  0
 16 15  1  0
 17 16  2  0
 18 17  1  0
 19 15  2  0
 19 18  1  0
 20  6  2  0
 21  3  2  0
 21 20  1  0
 22  2  1  0
 23 22  1  0
 24 23  1  0
 25 24  1  0
 26 25  1  0
 27 22  1  0
 27 26  1  0
 28  4  1  0
 29  5  1  0
 30  7  1  0
 31  7  1  0
 32 10  1  0
 33 11  1  0
 34 12  1  0
 35 13  1  0
 36 16  1  0
 37 19  1  0
 38 20  1  0
 39 21  1  0
 40 23  1  0
 41 23  1  0
 42 24  1  0
 43 24  1  0
 44 25  1  0
 45 25  1  0
 46 26  1  0
 47 26  1  0
 48 27  1  0
 49 27  1  0
M  END
>  <ID>  (29) 
compound_38

>  <series>  (29) 
3

>  <pKi>  (29) 
10.2452

>  <FEP_pKi>  (29) 
9.2302

>  <smiles>  (29) 
O=C(c1ccc(COc2ccccc2-c2cnoc2)cc1)N1CCCCC1

$$$$
compound_31
     RDKit          3D

 66 70  0  0  1  0  0  0  0  0999 V2000
   -0.4396   12.7288   15.4609 O   0  0  0  0  0  0  0  0  0  0  0  0
   -1.4985   12.6440   16.0916 C   0  0  0  0  0  0  0  0  0  0  0  0
   -2.7214   13.2852   15.5040 C   0  0  0  0  0  0  0  0  0  0  0  0
   -3.3926   14.3417   16.1645 C   0  0  0  0  0  0  0  0  0  0  0  0
   -4.5337   14.9285   15.5838 C   0  0  0  0  0  0  0  0  0  0  0  0
   -5.0085   14.4637   14.3382 C   0  0  0  0  0  0  0  0  0  0  0  0
   -6.2142   15.0907   13.6624 C   0  0  0  0  0  0  0  0  0  0  0  0
   -7.0611   14.0932   13.0869 O   0  0  0  0  0  0  0  0  0  0  0  0
   -7.6643   14.3280   11.8679 C   0  0  0  0  0  0  0  0  0  0  0  0
   -7.7443   15.5982   11.2476 C   0  0  0  0  0  0  0  0  0  0  0  0
   -8.3557   15.7423    9.9890 C   0  0  0  0  0  0  0  0  0  0  0  0
   -8.8932   14.6291    9.3255 C   0  0  0  0  0  0  0  0  0  0  0  0
   -8.8411   13.3666    9.9398 C   0  0  0  0  0  0  0  0  0  0  0  0
   -8.2434   13.2205   11.2062 C   0  0  0  0  0  0  0  0  0  0  0  0
   -8.2423   11.8528   11.8133 C   0  0  0  0  0  0  0  0  0  0  0  0
   -9.3668   11.0167   11.7458 C   0  0  0  0  0  0  0  0  0  0  0  0
   -9.3491    9.7578   12.3504 C   0  0  0  0  0  0  0  0  0  0  0  0
   -8.1975    9.3501   13.0250 C   0  0  0  0  0  0  0  0  0  0  0  0
   -8.2019    8.1223   13.6654 O   0  0  0  0  0  0  0  0  0  0  0  0
   -7.1142    7.7577   14.5240 C   0  0  0  0  0  0  0  0  0  0  0  0
   -5.8769    7.2771   13.7322 C   0  0  0  0  0  0  0  0  0  0  0  0
   -5.7249    5.7825   14.0344 C   0  0  0  0  0  0  0  0  0  0  0  0
   -6.3634    5.6069   15.4090 C   0  0  0  0  0  0  0  0  0  0  0  0
   -7.5629    6.5547   15.3747 C   0  0  0  0  0  0  0  0  0  0  0  0
   -7.0833   10.1322   13.0851 N   0  0  0  0  0  0  0  0  0  0  0  0
   -7.1180   11.3438   12.4799 C   0  0  0  0  0  0  0  0  0  0  0  0
   -4.3162   13.4367   13.6654 C   0  0  0  0  0  0  0  0  0  0  0  0
   -3.1810   12.8495   14.2443 C   0  0  0  0  0  0  0  0  0  0  0  0
   -1.6238   11.9706   17.2624 N   0  0  0  0  0  0  0  0  0  0  0  0
   -0.4955   11.2809   17.9027 C   0  0  0  0  0  0  0  0  0  0  0  0
   -0.2117   11.9266   19.2691 C   0  0  0  0  0  0  0  0  0  0  0  0
   -1.4720   11.9114   20.1609 C   0  0  0  0  0  0  0  0  0  0  0  0
   -2.7145   12.4351   19.4184 C   0  0  0  0  0  0  0  0  0  0  0  0
   -2.8629   11.7729   18.0364 C   0  0  0  0  0  0  0  0  0  0  0  0
   -3.0409   14.7119   17.1172 H   0  0  0  0  0  0  0  0  0  0  0  0
   -5.0322   15.7418   16.0914 H   0  0  0  0  0  0  0  0  0  0  0  0
   -6.8048   15.6700   14.3742 H   0  0  0  0  0  0  0  0  0  0  0  0
   -5.8624   15.7802   12.8918 H   0  0  0  0  0  0  0  0  0  0  0  0
   -7.3558   16.4798   11.7348 H   0  0  0  0  0  0  0  0  0  0  0  0
   -8.4218   16.7168    9.5282 H   0  0  0  0  0  0  0  0  0  0  0  0
   -9.3415   14.7457    8.3498 H   0  0  0  0  0  0  0  0  0  0  0  0
   -9.2551   12.5181    9.4145 H   0  0  0  0  0  0  0  0  0  0  0  0
  -10.2647   11.3459   11.2435 H   0  0  0  0  0  0  0  0  0  0  0  0
  -10.2202    9.1203   12.3137 H   0  0  0  0  0  0  0  0  0  0  0  0
   -6.8776    8.5879   15.1924 H   0  0  0  0  0  0  0  0  0  0  0  0
   -5.9974    7.4166   12.6570 H   0  0  0  0  0  0  0  0  0  0  0  0
   -4.9904    7.8321   14.0427 H   0  0  0  0  0  0  0  0  0  0  0  0
   -6.2660    5.1910   13.2935 H   0  0  0  0  0  0  0  0  0  0  0  0
   -4.6833    5.4597   14.0167 H   0  0  0  0  0  0  0  0  0  0  0  0
   -6.6546    4.5740   15.6036 H   0  0  0  0  0  0  0  0  0  0  0  0
   -5.6641    5.9079   16.1913 H   0  0  0  0  0  0  0  0  0  0  0  0
   -7.8501    6.8561   16.3827 H   0  0  0  0  0  0  0  0  0  0  0  0
   -8.4234    6.0535   14.9273 H   0  0  0  0  0  0  0  0  0  0  0  0
   -6.2029   11.9129   12.5437 H   0  0  0  0  0  0  0  0  0  0  0  0
   -4.6439   13.1009   12.6922 H   0  0  0  0  0  0  0  0  0  0  0  0
   -2.6564   12.0740   13.7039 H   0  0  0  0  0  0  0  0  0  0  0  0
   -0.7964   10.2421   18.0458 H   0  0  0  0  0  0  0  0  0  0  0  0
    0.3769   11.2171   17.2502 H   0  0  0  0  0  0  0  0  0  0  0  0
    0.6022   11.3935   19.7612 H   0  0  0  0  0  0  0  0  0  0  0  0
    0.1484   12.9472   19.1300 H   0  0  0  0  0  0  0  0  0  0  0  0
   -1.6645   10.8894   20.4909 H   0  0  0  0  0  0  0  0  0  0  0  0
   -1.3032   12.4978   21.0649 H   0  0  0  0  0  0  0  0  0  0  0  0
   -3.6003   12.2383   20.0207 H   0  0  0  0  0  0  0  0  0  0  0  0
   -2.6647   13.5201   19.3128 H   0  0  0  0  0  0  0  0  0  0  0  0
   -3.7727   12.0714   17.5192 H   0  0  0  0  0  0  0  0  0  0  0  0
   -2.9841   10.6965   18.1663 H   0  0  0  0  0  0  0  0  0  0  0  0
  2  1  2  0
  3  2  1  0
  4  3  1  0
  5  4  2  0
  6  5  1  0
  7  6  1  0
  8  7  1  0
  9  8  1  0
 10  9  2  0
 11 10  1  0
 12 11  2  0
 13 12  1  0
 14  9  1  0
 14 13  2  0
 15 14  1  0
 16 15  2  0
 17 16  1  0
 18 17  2  0
 19 18  1  0
 20 19  1  0
 21 20  1  0
 22 21  1  0
 23 22  1  0
 24 20  1  0
 24 23  1  0
 25 18  1  0
 26 15  1  0
 26 25  2  0
 27  6  2  0
 28  3  2  0
 28 27  1  0
 29  2  1  0
 30 29  1  0
 31 30  1  0
 32 31  1  0
 33 32  1  0
 34 29  1  0
 34 33  1  0
 35  4  1  0
 36  5  1  0
 37  7  1  0
 38  7  1  0
 39 10  1  0
 40 11  1  0
 41 12  1  0
 42 13  1  0
 43 16  1  0
 44 17  1  0
 45 20  1  0
 46 21  1  0
 47 21  1  0
 48 22  1  0
 49 22  1  0
 50 23  1  0
 51 23  1  0
 52 24  1  0
 53 24  1  0
 54 26  1  0
 55 27  1  0
 56 28  1  0
 57 30  1  0
 58 30  1  0
 59 31  1  0
 60 31  1  0
 61 32  1  0
 62 32  1  0
 63 33  1  0
 64 33  1  0
 65 34  1  0
 66 34  1  0
M  END
>  <ID>  (30) 
compound_31

>  <series>  (30) 
3

>  <pKi>  (30) 
5.8021

>  <FEP_pKi>  (30) 
5.4912

>  <smiles>  (30) 
O=C(c1ccc(COc2ccccc2-c2ccc(OC3CCCC3)nc2)cc1)N1CCCCC1

$$$$
compound_43
     RDKit          3D

 51 55  0  0  1  0  0  0  0  0999 V2000
   -4.7428   15.1087   15.4301 C   0  0  0  0  0  0  0  0  0  0  0  0
   -3.6030   14.6433   16.1002 C   0  0  0  0  0  0  0  0  0  0  0  0
   -2.9691   13.4736   15.6402 C   0  0  0  0  0  0  0  0  0  0  0  0
   -3.3816   12.9020   14.4242 C   0  0  0  0  0  0  0  0  0  0  0  0
   -4.4204   13.3451   13.7026 N   0  0  0  0  0  0  0  0  0  0  0  0
   -5.0902   14.3926   14.2611 C   0  0  0  0  0  0  0  0  0  0  0  0
   -1.9720   12.7945   16.4312 C   0  0  0  0  0  0  0  0  0  0  0  0
   -0.9023   12.2656   15.8607 N   0  0  0  0  0  0  0  0  0  0  0  0
   -0.2434   11.6002   16.8505 N   0  0  0  0  0  0  0  0  0  0  0  0
   -0.8521   11.9443   17.9705 C   0  0  0  0  0  0  0  0  0  0  0  0
   -0.2431   11.7505   19.3090 C   0  0  0  0  0  0  0  0  0  0  0  0
   -1.0967   10.9820   20.3052 C   0  0  0  0  0  0  0  0  0  0  0  0
   -2.2771   11.7660   20.8172 C   0  0  0  0  0  0  0  0  0  0  0  0
   -3.3452   12.0091   19.7639 C   0  0  0  0  0  0  0  0  0  0  0  0
   -2.9462   13.0650   18.7470 C   0  0  0  0  0  0  0  0  0  0  0  0
   -1.9962   12.6017   17.7671 N   0  0  0  0  0  0  0  0  0  0  0  0
   -5.7108   16.1445   15.6277 C   0  0  0  0  0  0  0  0  0  0  0  0
   -6.6291   16.0007   14.6210 C   0  0  0  0  0  0  0  0  0  0  0  0
   -6.2677   14.9388   13.8040 N   0  0  0  0  0  0  0  0  0  0  0  0
   -6.9773   14.4848   12.6860 C   0  0  0  0  0  0  0  0  0  0  0  0
   -7.3728   15.4016   11.7080 C   0  0  0  0  0  0  0  0  0  0  0  0
   -8.0807   14.9651   10.5884 C   0  0  0  0  0  0  0  0  0  0  0  0
   -8.4024   13.6052   10.4327 C   0  0  0  0  0  0  0  0  0  0  0  0
   -8.0142   12.6841   11.4266 C   0  0  0  0  0  0  0  0  0  0  0  0
   -7.2954   13.1263   12.5469 C   0  0  0  0  0  0  0  0  0  0  0  0
   -9.1487   13.1495    9.2244 C   0  0  0  0  0  0  0  0  0  0  0  0
   -9.4458   11.9718    9.0516 O   0  0  0  0  0  0  0  0  0  0  0  0
   -9.4708   14.1201    8.3670 N   0  0  0  0  0  0  0  0  0  0  0  0
  -10.2664   13.9510    7.1710 C   0  0  0  0  0  0  0  0  0  0  0  0
   -3.2844   15.1361   17.0111 H   0  0  0  0  0  0  0  0  0  0  0  0
   -2.8998   12.0118   14.0397 H   0  0  0  0  0  0  0  0  0  0  0  0
    0.7012   11.2218   19.1685 H   0  0  0  0  0  0  0  0  0  0  0  0
    0.0198   12.7304   19.7102 H   0  0  0  0  0  0  0  0  0  0  0  0
   -0.4559   10.8016   21.1678 H   0  0  0  0  0  0  0  0  0  0  0  0
   -1.4433   10.0122   19.9268 H   0  0  0  0  0  0  0  0  0  0  0  0
   -1.9608   12.7033   21.2778 H   0  0  0  0  0  0  0  0  0  0  0  0
   -2.7189   11.1656   21.6082 H   0  0  0  0  0  0  0  0  0  0  0  0
   -4.2431   12.3576   20.2770 H   0  0  0  0  0  0  0  0  0  0  0  0
   -3.6257   11.0810   19.2669 H   0  0  0  0  0  0  0  0  0  0  0  0
   -2.5453   13.9487   19.2332 H   0  0  0  0  0  0  0  0  0  0  0  0
   -3.8451   13.3739   18.2405 H   0  0  0  0  0  0  0  0  0  0  0  0
   -5.7267   16.8736   16.4292 H   0  0  0  0  0  0  0  0  0  0  0  0
   -7.5283   16.5696   14.4243 H   0  0  0  0  0  0  0  0  0  0  0  0
   -7.1293   16.4492   11.8080 H   0  0  0  0  0  0  0  0  0  0  0  0
   -8.3545   15.7164    9.8636 H   0  0  0  0  0  0  0  0  0  0  0  0
   -8.2594   11.6370   11.3309 H   0  0  0  0  0  0  0  0  0  0  0  0
   -6.9981   12.4150   13.3014 H   0  0  0  0  0  0  0  0  0  0  0  0
   -9.1764   15.0531    8.6100 H   0  0  0  0  0  0  0  0  0  0  0  0
  -10.3286   14.8928    6.6258 H   0  0  0  0  0  0  0  0  0  0  0  0
  -11.2826   13.6366    7.4257 H   0  0  0  0  0  0  0  0  0  0  0  0
   -9.8406   13.2011    6.5000 H   0  0  0  0  0  0  0  0  0  0  0  0
  2  1  1  0
  3  2  2  0
  4  3  1  0
  5  4  2  0
  6  1  2  0
  6  5  1  0
  7  3  1  0
  8  7  2  0
  9  8  1  0
 10  9  2  0
 11 10  1  0
 12 11  1  0
 13 12  1  0
 14 13  1  0
 15 14  1  0
 16  7  1  0
 16 10  1  0
 16 15  1  0
 17  1  1  0
 18 17  2  0
 19  6  1  0
 19 18  1  0
 20 19  1  0
 21 20  1  0
 22 21  2  0
 23 22  1  0
 24 23  2  0
 25 20  2  0
 25 24  1  0
 26 23  1  0
 27 26  2  0
 28 26  1  0
 29 28  1  0
 30  2  1  0
 31  4  1  0
 32 11  1  0
 33 11  1  0
 34 12  1  0
 35 12  1  0
 36 13  1  0
 37 13  1  0
 38 14  1  0
 39 14  1  0
 40 15  1  0
 41 15  1  0
 42 17  1  0
 43 18  1  0
 44 21  1  0
 45 22  1  0
 46 24  1  0
 47 25  1  0
 48 28  1  0
 49 29  1  0
 50 29  1  0
 51 29  1  0
M  END
>  <ID>  (31) 
compound_43

>  <series>  (31) 
4_5

>  <pKi>  (31) 
10.0204

>  <FEP_pKi>  (31) 
9.7660

>  <smiles>  (31) 
CNC(=O)c1ccc(-n2ccc3cc(-c4nnc5n4CCCCC5)cnc32)cc1

$$$$
compound_48
     RDKit          3D

 54 59  0  0  1  0  0  0  0  0999 V2000
  -10.0094   14.4810    7.3794 C   0  0  0  0  0  0  0  0  0  0  0  0
   -9.2779   14.2812    8.6192 N   0  0  0  0  0  0  0  0  0  0  0  0
   -8.7260   15.3396    9.2641 N   0  0  0  0  0  0  0  0  0  0  0  0
   -8.2436   14.8072   10.3354 C   0  0  0  0  0  0  0  0  0  0  0  0
   -7.5557   15.3598   11.4830 C   0  0  0  0  0  0  0  0  0  0  0  0
   -7.1858   14.5728   12.5211 C   0  0  0  0  0  0  0  0  0  0  0  0
   -7.4714   13.1426   12.4697 C   0  0  0  0  0  0  0  0  0  0  0  0
   -8.0934   12.6145   11.4058 C   0  0  0  0  0  0  0  0  0  0  0  0
   -8.4721   13.4464   10.3582 N   0  0  0  0  0  0  0  0  0  0  0  0
   -9.1394   13.1208    9.2615 C   0  0  0  0  0  0  0  0  0  0  0  0
   -9.5450   12.0141    8.9097 O   0  0  0  0  0  0  0  0  0  0  0  0
   -6.6020   15.1430   13.6421 N   0  0  0  0  0  0  0  0  0  0  0  0
   -7.3606   16.0624   14.4797 C   0  0  0  0  0  0  0  0  0  0  0  0
   -6.4481   17.0188   15.2355 C   0  0  0  0  0  0  0  0  0  0  0  0
   -5.6177   16.2800   16.1095 O   0  0  0  0  0  0  0  0  0  0  0  0
   -5.0133   15.1969   15.5229 C   0  0  0  0  0  0  0  0  0  0  0  0
   -3.9266   14.6286   16.1978 C   0  0  0  0  0  0  0  0  0  0  0  0
   -3.2986   13.5022   15.6533 C   0  0  0  0  0  0  0  0  0  0  0  0
   -3.6807   13.0055   14.3950 C   0  0  0  0  0  0  0  0  0  0  0  0
   -4.7128   13.6140   13.6950 C   0  0  0  0  0  0  0  0  0  0  0  0
   -5.4512   14.6564   14.2827 C   0  0  0  0  0  0  0  0  0  0  0  0
   -2.1363   12.9052   16.2260 C   0  0  0  0  0  0  0  0  0  0  0  0
   -1.1356   12.7418   15.3738 N   0  0  0  0  0  0  0  0  0  0  0  0
   -0.2434   11.9979   16.0235 N   0  0  0  0  0  0  0  0  0  0  0  0
   -0.6467   11.9425   17.2724 C   0  0  0  0  0  0  0  0  0  0  0  0
   -1.8336   12.4395   17.4609 N   0  0  0  0  0  0  0  0  0  0  0  0
   -2.3325   12.2678   18.7964 C   0  0  0  0  0  0  0  0  0  0  0  0
   -1.0849   11.7759   19.5839 C   0  0  0  0  0  0  0  0  0  0  0  0
   -0.0254   11.4575   18.5156 C   0  0  0  0  0  0  0  0  0  0  0  0
   -3.3779   11.1947   18.7715 C   0  0  0  0  0  0  0  0  0  0  0  0
   -2.8732   13.5766   19.3141 C   0  0  0  0  0  0  0  0  0  0  0  0
   -9.6528   13.8062    6.6042 H   0  0  0  0  0  0  0  0  0  0  0  0
  -11.0742   14.2970    7.5371 H   0  0  0  0  0  0  0  0  0  0  0  0
   -9.8903   15.4999    7.0160 H   0  0  0  0  0  0  0  0  0  0  0  0
   -7.3594   16.4188   11.5375 H   0  0  0  0  0  0  0  0  0  0  0  0
   -7.1935   12.5034   13.2930 H   0  0  0  0  0  0  0  0  0  0  0  0
   -8.3501   11.5696   11.2962 H   0  0  0  0  0  0  0  0  0  0  0  0
   -7.9638   15.4871   15.1800 H   0  0  0  0  0  0  0  0  0  0  0  0
   -8.0615   16.6313   13.8702 H   0  0  0  0  0  0  0  0  0  0  0  0
   -7.0404   17.7234   15.8179 H   0  0  0  0  0  0  0  0  0  0  0  0
   -5.8501   17.6022   14.5359 H   0  0  0  0  0  0  0  0  0  0  0  0
   -3.5829   15.0715   17.1196 H   0  0  0  0  0  0  0  0  0  0  0  0
   -3.1633   12.1738   13.9315 H   0  0  0  0  0  0  0  0  0  0  0  0
   -4.9433   13.2228   12.7178 H   0  0  0  0  0  0  0  0  0  0  0  0
   -1.2930   10.9129   20.2217 H   0  0  0  0  0  0  0  0  0  0  0  0
   -0.7077   12.5636   20.2402 H   0  0  0  0  0  0  0  0  0  0  0  0
    0.9082   11.9851   18.7055 H   0  0  0  0  0  0  0  0  0  0  0  0
    0.1885   10.4001   18.4172 H   0  0  0  0  0  0  0  0  0  0  0  0
   -3.6357   10.8076   19.7600 H   0  0  0  0  0  0  0  0  0  0  0  0
   -4.2434   11.6322   18.3198 H   0  0  0  0  0  0  0  0  0  0  0  0
   -3.0703   10.3819   18.1127 H   0  0  0  0  0  0  0  0  0  0  0  0
   -2.7891   13.6402   20.4018 H   0  0  0  0  0  0  0  0  0  0  0  0
   -2.2924   14.3569   18.8216 H   0  0  0  0  0  0  0  0  0  0  0  0
   -3.9212   13.7396   19.0499 H   0  0  0  0  0  0  0  0  0  0  0  0
  2  1  1  0
  3  2  1  0
  4  3  2  0
  5  4  1  0
  6  5  2  0
  7  6  1  0
  8  7  2  0
  9  4  1  0
  9  8  1  0
 10  2  1  0
 10  9  1  0
 11 10  2  0
 12  6  1  0
 13 12  1  0
 14 13  1  0
 15 14  1  0
 16 15  1  0
 17 16  1  0
 18 17  2  0
 19 18  1  0
 20 19  2  0
 21 12  1  0
 21 16  2  0
 21 20  1  0
 22 18  1  0
 23 22  2  0
 24 23  1  0
 25 24  2  0
 26 22  1  0
 26 25  1  0
 27 26  1  0
 28 27  1  0
 29 25  1  0
 29 28  1  0
 30 27  1  0
 31 27  1  0
 32  1  1  0
 33  1  1  0
 34  1  1  0
 35  5  1  0
 36  7  1  0
 37  8  1  0
 38 13  1  0
 39 13  1  0
 40 14  1  0
 41 14  1  0
 42 17  1  0
 43 19  1  0
 44 20  1  0
 45 28  1  0
 46 28  1  0
 47 29  1  0
 48 29  1  0
 49 30  1  0
 50 30  1  0
 51 30  1  0
 52 31  1  0
 53 31  1  0
 54 31  1  0
M  END
>  <ID>  (32) 
compound_48

>  <series>  (32) 
4_5

>  <pKi>  (32) 
7.5051

>  <FEP_pKi>  (32) 
7.8869

>  <smiles>  (32) 
Cn1nc2cc(N3CCOc4cc(-c5nnc6n5C(C)(C)CC6)ccc43)ccn2c1=O

$$$$
compound_49
     RDKit          3D

 54 59  0  0  1  0  0  0  0  0999 V2000
   -8.5513   14.9820    6.9276 C   0  0  0  0  0  0  0  0  0  0  0  0
   -8.3383   14.6819    8.3250 N   0  0  0  0  0  0  0  0  0  0  0  0
   -8.0707   15.6875    9.1978 N   0  0  0  0  0  0  0  0  0  0  0  0
   -7.7220   15.0556   10.2610 C   0  0  0  0  0  0  0  0  0  0  0  0
   -7.2859   15.4932   11.5727 C   0  0  0  0  0  0  0  0  0  0  0  0
   -7.0140   14.5823   12.5370 C   0  0  0  0  0  0  0  0  0  0  0  0
   -7.1643   13.1696   12.2515 C   0  0  0  0  0  0  0  0  0  0  0  0
   -7.5409   12.7557   11.0384 C   0  0  0  0  0  0  0  0  0  0  0  0
   -7.8142   13.6955   10.0700 N   0  0  0  0  0  0  0  0  0  0  0  0
   -8.2019   13.4631    8.8351 C   0  0  0  0  0  0  0  0  0  0  0  0
   -8.3753   12.3833    8.2783 O   0  0  0  0  0  0  0  0  0  0  0  0
   -6.4582   14.9211   13.7498 N   0  0  0  0  0  0  0  0  0  0  0  0
   -7.1977   15.8110   14.6313 C   0  0  0  0  0  0  0  0  0  0  0  0
   -6.2836   16.8439   15.2595 C   0  0  0  0  0  0  0  0  0  0  0  0
   -5.3283   16.1765   16.0483 O   0  0  0  0  0  0  0  0  0  0  0  0
   -4.7161   15.1187   15.4331 C   0  0  0  0  0  0  0  0  0  0  0  0
   -3.5777   14.6202   16.0472 C   0  0  0  0  0  0  0  0  0  0  0  0
   -2.9703   13.4574   15.5726 C   0  0  0  0  0  0  0  0  0  0  0  0
   -3.3679   12.9027   14.3498 C   0  0  0  0  0  0  0  0  0  0  0  0
   -4.4868   13.4397   13.6935 C   0  0  0  0  0  0  0  0  0  0  0  0
   -5.2235   14.4954   14.2725 C   0  0  0  0  0  0  0  0  0  0  0  0
   -2.0675   12.7886   16.4619 C   0  0  0  0  0  0  0  0  0  0  0  0
   -0.9229   12.2006   16.1058 N   0  0  0  0  0  0  0  0  0  0  0  0
   -0.4146   11.6354   17.2703 N   0  0  0  0  0  0  0  0  0  0  0  0
   -1.2549   12.0400   18.2112 C   0  0  0  0  0  0  0  0  0  0  0  0
   -2.3026   12.6735   17.7775 N   0  0  0  0  0  0  0  0  0  0  0  0
   -3.3038   12.9781   18.7593 C   0  0  0  0  0  0  0  0  0  0  0  0
   -2.5545   12.7018   20.0685 C   0  0  0  0  0  0  0  0  0  0  0  0
   -1.3699   11.8044   19.6605 C   0  0  0  0  0  0  0  0  0  0  0  0
   -0.0939   12.1292   20.4203 C   0  0  0  0  0  0  0  0  0  0  0  0
   -1.8432   10.3989   19.8458 C   0  0  0  0  0  0  0  0  0  0  0  0
   -9.3835   14.4019    6.5317 H   0  0  0  0  0  0  0  0  0  0  0  0
   -8.7576   16.0426    6.7799 H   0  0  0  0  0  0  0  0  0  0  0  0
   -7.6640   14.7302    6.3484 H   0  0  0  0  0  0  0  0  0  0  0  0
   -7.1209   16.5394   11.7859 H   0  0  0  0  0  0  0  0  0  0  0  0
   -6.9648   12.4363   13.0203 H   0  0  0  0  0  0  0  0  0  0  0  0
   -7.6663   11.7208   10.7509 H   0  0  0  0  0  0  0  0  0  0  0  0
   -7.6978   15.2217   15.3963 H   0  0  0  0  0  0  0  0  0  0  0  0
   -7.9911   16.3222   14.0845 H   0  0  0  0  0  0  0  0  0  0  0  0
   -6.8533   17.5244   15.8932 H   0  0  0  0  0  0  0  0  0  0  0  0
   -5.7935   17.4472   14.4936 H   0  0  0  0  0  0  0  0  0  0  0  0
   -3.2302   15.1018   16.9483 H   0  0  0  0  0  0  0  0  0  0  0  0
   -2.8882   12.0153   13.9615 H   0  0  0  0  0  0  0  0  0  0  0  0
   -4.8277   12.9615   12.7911 H   0  0  0  0  0  0  0  0  0  0  0  0
   -4.1182   12.2649   18.6488 H   0  0  0  0  0  0  0  0  0  0  0  0
   -3.6793   13.9971   18.6989 H   0  0  0  0  0  0  0  0  0  0  0  0
   -3.2050   12.2692   20.8282 H   0  0  0  0  0  0  0  0  0  0  0  0
   -2.2123   13.6330   20.4967 H   0  0  0  0  0  0  0  0  0  0  0  0
   -0.2086   11.9486   21.4896 H   0  0  0  0  0  0  0  0  0  0  0  0
    0.1789   13.1768   20.2919 H   0  0  0  0  0  0  0  0  0  0  0  0
    0.7421   11.5255   20.0670 H   0  0  0  0  0  0  0  0  0  0  0  0
   -1.5884   10.0004   20.8223 H   0  0  0  0  0  0  0  0  0  0  0  0
   -2.9260   10.3996   19.7318 H   0  0  0  0  0  0  0  0  0  0  0  0
   -1.4446    9.7624   19.0568 H   0  0  0  0  0  0  0  0  0  0  0  0
  2  1  1  0
  3  2  1  0
  4  3  2  0
  5  4  1  0
  6  5  2  0
  7  6  1  0
  8  7  2  0
  9  4  1  0
  9  8  1  0
 10  2  1  0
 10  9  1  0
 11 10  2  0
 12  6  1  0
 13 12  1  0
 14 13  1  0
 15 14  1  0
 16 15  1  0
 17 16  1  0
 18 17  2  0
 19 18  1  0
 20 19  2  0
 21 12  1  0
 21 16  2  0
 21 20  1  0
 22 18  1  0
 23 22  2  0
 24 23  1  0
 25 24  2  0
 26 22  1  0
 26 25  1  0
 27 26  1  0
 28 27  1  0
 29 25  1  0
 29 28  1  0
 30 29  1  0
 31 29  1  0
 32  1  1  0
 33  1  1  0
 34  1  1  0
 35  5  1  0
 36  7  1  0
 37  8  1  0
 38 13  1  0
 39 13  1  0
 40 14  1  0
 41 14  1  0
 42 17  1  0
 43 19  1  0
 44 20  1  0
 45 27  1  0
 46 27  1  0
 47 28  1  0
 48 28  1  0
 49 30  1  0
 50 30  1  0
 51 30  1  0
 52 31  1  0
 53 31  1  0
 54 31  1  0
M  END
>  <ID>  (33) 
compound_49

>  <series>  (33) 
4_5

>  <pKi>  (33) 
7.9807

>  <FEP_pKi>  (33) 
8.8949

>  <smiles>  (33) 
Cn1nc2cc(N3CCOc4cc(-c5nnc6n5CCC6(C)C)ccc43)ccn2c1=O

$$$$
compound_50
     RDKit          3D

 60 65  0  0  1  0  0  0  0  0999 V2000
  -10.0006   14.4400    7.3008 C   0  0  0  0  0  0  0  0  0  0  0  0
   -9.2968   14.2679    8.5618 N   0  0  0  0  0  0  0  0  0  0  0  0
   -8.7757   15.3572    9.2003 N   0  0  0  0  0  0  0  0  0  0  0  0
   -8.3132   14.8542   10.2918 C   0  0  0  0  0  0  0  0  0  0  0  0
   -7.6665   15.4547   11.4437 C   0  0  0  0  0  0  0  0  0  0  0  0
   -7.3192   14.7012   12.5196 C   0  0  0  0  0  0  0  0  0  0  0  0
   -7.5680   13.2452   12.4950 C   0  0  0  0  0  0  0  0  0  0  0  0
   -8.1339   12.6666   11.4264 C   0  0  0  0  0  0  0  0  0  0  0  0
   -8.5036   13.4777   10.3409 N   0  0  0  0  0  0  0  0  0  0  0  0
   -9.1449   13.1143    9.2313 C   0  0  0  0  0  0  0  0  0  0  0  0
   -9.5298   11.9881    8.8900 O   0  0  0  0  0  0  0  0  0  0  0  0
   -6.6660   15.3082   13.5963 N   0  0  0  0  0  0  0  0  0  0  0  0
   -6.9851   16.6435   14.1246 C   0  0  0  0  0  0  0  0  0  0  0  0
   -6.9444   16.6552   15.6628 C   0  0  0  0  0  0  0  0  0  0  0  0
   -5.6583   16.2772   16.1453 O   0  0  0  0  0  0  0  0  0  0  0  0
   -5.0326   15.2651   15.4483 C   0  0  0  0  0  0  0  0  0  0  0  0
   -3.8775   14.6928   16.0126 C   0  0  0  0  0  0  0  0  0  0  0  0
   -3.2377   13.6408   15.3316 C   0  0  0  0  0  0  0  0  0  0  0  0
   -3.6433   13.2071   14.0593 C   0  0  0  0  0  0  0  0  0  0  0  0
   -4.7533   13.8070   13.4763 C   0  0  0  0  0  0  0  0  0  0  0  0
   -5.4957   14.7895   14.1811 C   0  0  0  0  0  0  0  0  0  0  0  0
   -2.1386   12.9375   15.9117 C   0  0  0  0  0  0  0  0  0  0  0  0
   -1.0118   12.8247   15.2233 N   0  0  0  0  0  0  0  0  0  0  0  0
   -0.2434   12.0003   15.9450 N   0  0  0  0  0  0  0  0  0  0  0  0
   -0.9287   11.6888   17.0260 C   0  0  0  0  0  0  0  0  0  0  0  0
   -0.3800   10.8527   18.1158 C   0  0  0  0  0  0  0  0  0  0  0  0
   -0.1734   11.6984   19.3729 C   0  0  0  0  0  0  0  0  0  0  0  0
   -2.5317   12.8581   19.4224 C   0  0  0  0  0  0  0  0  0  0  0  0
   -3.0934   12.2256   18.1433 C   0  0  0  0  0  0  0  0  0  0  0  0
   -2.1216   12.2815   17.0882 N   0  0  0  0  0  0  0  0  0  0  0  0
   -1.4698   12.0100   20.1708 C   0  0  0  0  0  0  0  0  0  0  0  0
   -2.1566   10.7236   20.6458 C   0  0  0  0  0  0  0  0  0  0  0  0
   -1.0050   12.7659   21.4260 C   0  0  0  0  0  0  0  0  0  0  0  0
   -9.5720   13.7819    6.5381 H   0  0  0  0  0  0  0  0  0  0  0  0
  -11.0534   14.1930    7.4134 H   0  0  0  0  0  0  0  0  0  0  0  0
   -9.9282   15.4671    6.9373 H   0  0  0  0  0  0  0  0  0  0  0  0
   -7.4616   16.5150   11.4542 H   0  0  0  0  0  0  0  0  0  0  0  0
   -7.3116   12.6434   13.3533 H   0  0  0  0  0  0  0  0  0  0  0  0
   -8.3598   11.6164   11.3281 H   0  0  0  0  0  0  0  0  0  0  0  0
   -7.9772   16.9485   13.7900 H   0  0  0  0  0  0  0  0  0  0  0  0
   -6.2745   17.3614   13.7253 H   0  0  0  0  0  0  0  0  0  0  0  0
   -7.7087   15.9983   16.0742 H   0  0  0  0  0  0  0  0  0  0  0  0
   -7.1627   17.6565   16.0235 H   0  0  0  0  0  0  0  0  0  0  0  0
   -3.5226   15.0249   16.9783 H   0  0  0  0  0  0  0  0  0  0  0  0
   -3.1166   12.4236   13.5318 H   0  0  0  0  0  0  0  0  0  0  0  0
   -5.0173   13.4928   12.4756 H   0  0  0  0  0  0  0  0  0  0  0  0
    0.5764   10.4403   17.7913 H   0  0  0  0  0  0  0  0  0  0  0  0
   -1.0450   10.0031   18.2542 H   0  0  0  0  0  0  0  0  0  0  0  0
    0.4954   11.1518   20.0236 H   0  0  0  0  0  0  0  0  0  0  0  0
    0.3620   12.6125   19.1205 H   0  0  0  0  0  0  0  0  0  0  0  0
   -3.3682   13.0619   20.0940 H   0  0  0  0  0  0  0  0  0  0  0  0
   -2.1379   13.8324   19.1619 H   0  0  0  0  0  0  0  0  0  0  0  0
   -3.4436   11.2098   18.2658 H   0  0  0  0  0  0  0  0  0  0  0  0
   -3.9160   12.8299   17.8189 H   0  0  0  0  0  0  0  0  0  0  0  0
   -3.0363   10.9083   21.2603 H   0  0  0  0  0  0  0  0  0  0  0  0
   -2.4590   10.0507   19.8619 H   0  0  0  0  0  0  0  0  0  0  0  0
   -1.4439   10.1721   21.2154 H   0  0  0  0  0  0  0  0  0  0  0  0
   -1.8415   13.1166   22.0211 H   0  0  0  0  0  0  0  0  0  0  0  0
   -0.3937   12.1066   22.0209 H   0  0  0  0  0  0  0  0  0  0  0  0
   -0.3516   13.5990   21.2190 H   0  0  0  0  0  0  0  0  0  0  0  0
  2  1  1  0
  3  2  1  0
  4  3  2  0
  5  4  1  0
  6  5  2  0
  7  6  1  0
  8  7  2  0
  9  4  1  0
  9  8  1  0
 10  2  1  0
 10  9  1  0
 11 10  2  0
 12  6  1  0
 13 12  1  0
 14 13  1  0
 15 14  1  0
 16 15  1  0
 17 16  1  0
 18 17  2  0
 19 18  1  0
 20 19  2  0
 21 12  1  0
 21 16  2  0
 21 20  1  0
 22 18  1  0
 23 22  2  0
 24 23  1  0
 25 24  2  0
 26 25  1  0
 27 26  1  0
 29 28  1  0
 30 22  1  0
 30 25  1  0
 30 29  1  0
 31 27  1  0
 31 28  1  0
 32 31  1  0
 33 31  1  0
 34  1  1  0
 35  1  1  0
 36  1  1  0
 37  5  1  0
 38  7  1  0
 39  8  1  0
 40 13  1  0
 41 13  1  0
 42 14  1  0
 43 14  1  0
 44 17  1  0
 45 19  1  0
 46 20  1  0
 47 26  1  0
 48 26  1  0
 49 27  1  0
 50 27  1  0
 51 28  1  0
 52 28  1  0
 53 29  1  0
 54 29  1  0
 55 32  1  0
 56 32  1  0
 57 32  1  0
 58 33  1  0
 59 33  1  0
 60 33  1  0
M  END
>  <ID>  (34) 
compound_50

>  <series>  (34) 
4_5

>  <pKi>  (34) 
8.3995

>  <FEP_pKi>  (34) 
8.6053

>  <smiles>  (34) 
Cn1nc2cc(N3CCOc4cc(-c5nnc6n5CCC(C)(C)CC6)ccc43)ccn2c1=O

$$$$
compound_15
     RDKit          3D

 56 59  0  0  1  0  0  0  0  0999 V2000
   -6.5703   16.3625   14.3678 C   0  0  0  0  0  0  0  0  0  0  0  0
   -6.2276   15.0163   13.8491 N   0  0  0  0  0  0  0  0  0  0  0  0
   -5.0304   14.4775   14.3958 C   0  0  0  0  0  0  0  0  0  0  0  0
   -4.3104   13.4777   13.6880 C   0  0  0  0  0  0  0  0  0  0  0  0
   -3.1678   12.8859   14.2416 C   0  0  0  0  0  0  0  0  0  0  0  0
   -2.7003   13.2837   15.4984 C   0  0  0  0  0  0  0  0  0  0  0  0
   -3.3280   14.3426   16.1704 C   0  0  0  0  0  0  0  0  0  0  0  0
   -4.4713   14.9191   15.6202 C   0  0  0  0  0  0  0  0  0  0  0  0
   -1.5066   12.6188   16.0789 C   0  0  0  0  0  0  0  0  0  0  0  0
   -0.4734   12.6716   15.4111 O   0  0  0  0  0  0  0  0  0  0  0  0
   -1.6217   11.9393   17.2455 N   0  0  0  0  0  0  0  0  0  0  0  0
   -0.4813   11.2674   17.8814 C   0  0  0  0  0  0  0  0  0  0  0  0
   -0.2040   11.9339   19.2409 C   0  0  0  0  0  0  0  0  0  0  0  0
   -1.4681   11.9357   20.1250 C   0  0  0  0  0  0  0  0  0  0  0  0
   -1.7065   10.6772   20.4908 F   0  0  0  0  0  0  0  0  0  0  0  0
   -1.2612   12.6506   21.2308 F   0  0  0  0  0  0  0  0  0  0  0  0
   -2.7168   12.4495   19.3792 C   0  0  0  0  0  0  0  0  0  0  0  0
   -2.8706   11.7739   18.0064 C   0  0  0  0  0  0  0  0  0  0  0  0
   -6.9140   14.4231   12.7849 C   0  0  0  0  0  0  0  0  0  0  0  0
   -7.3912   15.1764   11.7642 C   0  0  0  0  0  0  0  0  0  0  0  0
   -8.1116   14.6079   10.6504 C   0  0  0  0  0  0  0  0  0  0  0  0
   -8.6412   15.1229    9.5981 N   0  0  0  0  0  0  0  0  0  0  0  0
   -9.1282   14.0435    8.9414 N   0  0  0  0  0  0  0  0  0  0  0  0
   -9.8319   14.2137    7.6786 C   0  0  0  0  0  0  0  0  0  0  0  0
   -8.9101   12.8922    9.5702 C   0  0  0  0  0  0  0  0  0  0  0  0
   -9.2689   11.7823    9.1944 O   0  0  0  0  0  0  0  0  0  0  0  0
   -8.2483   13.2311   10.6659 N   0  0  0  0  0  0  0  0  0  0  0  0
   -7.7702   12.4115   11.6851 C   0  0  0  0  0  0  0  0  0  0  0  0
   -7.1248   12.9624   12.7249 C   0  0  0  0  0  0  0  0  0  0  0  0
   -8.0595   16.7069   14.3383 C   0  0  0  0  0  0  0  0  0  0  0  0
   -5.6572   17.4527   13.7960 C   0  0  0  0  0  0  0  0  0  0  0  0
   -6.4519   16.4019   15.4436 H   0  0  0  0  0  0  0  0  0  0  0  0
   -4.6185   13.1377   12.7150 H   0  0  0  0  0  0  0  0  0  0  0  0
   -2.6481   12.1120   13.6825 H   0  0  0  0  0  0  0  0  0  0  0  0
   -2.9605   14.7034   17.1155 H   0  0  0  0  0  0  0  0  0  0  0  0
   -4.8678   15.7071   16.2290 H   0  0  0  0  0  0  0  0  0  0  0  0
   -0.7096   10.2088   18.0087 H   0  0  0  0  0  0  0  0  0  0  0  0
    0.4245   11.2883   17.2760 H   0  0  0  0  0  0  0  0  0  0  0  0
    0.6092   11.4126   19.7482 H   0  0  0  0  0  0  0  0  0  0  0  0
    0.1400   12.9537   19.0678 H   0  0  0  0  0  0  0  0  0  0  0  0
   -3.6107   12.2664   19.9772 H   0  0  0  0  0  0  0  0  0  0  0  0
   -2.6520   13.5279   19.2349 H   0  0  0  0  0  0  0  0  0  0  0  0
   -3.7459   12.1767   17.5049 H   0  0  0  0  0  0  0  0  0  0  0  0
   -3.0884   10.7132   18.1212 H   0  0  0  0  0  0  0  0  0  0  0  0
   -7.2351   16.2405   11.7970 H   0  0  0  0  0  0  0  0  0  0  0  0
  -10.8504   13.8300    7.7516 H   0  0  0  0  0  0  0  0  0  0  0  0
   -9.8848   15.2646    7.3939 H   0  0  0  0  0  0  0  0  0  0  0  0
   -9.3213   13.6729    6.8815 H   0  0  0  0  0  0  0  0  0  0  0  0
   -7.9486   11.3505   11.5623 H   0  0  0  0  0  0  0  0  0  0  0  0
   -6.7458   12.3194   13.5074 H   0  0  0  0  0  0  0  0  0  0  0  0
   -8.2540   17.6130   14.9075 H   0  0  0  0  0  0  0  0  0  0  0  0
   -8.4227   16.8976   13.3429 H   0  0  0  0  0  0  0  0  0  0  0  0
   -8.6566   15.9088   14.7735 H   0  0  0  0  0  0  0  0  0  0  0  0
   -5.8556   18.4118   14.2635 H   0  0  0  0  0  0  0  0  0  0  0  0
   -4.6015   17.2342   13.9609 H   0  0  0  0  0  0  0  0  0  0  0  0
   -5.8026   17.5723   12.7295 H   0  0  0  0  0  0  0  0  0  0  0  0
  2  1  1  0
  3  2  1  0
  4  3  1  0
  5  4  2  0
  6  5  1  0
  7  6  2  0
  8  3  2  0
  8  7  1  0
  9  6  1  0
 10  9  2  0
 11  9  1  0
 12 11  1  0
 13 12  1  0
 14 13  1  0
 15 14  1  0
 16 14  1  0
 17 14  1  0
 18 11  1  0
 18 17  1  0
 19  2  1  0
 20 19  2  0
 21 20  1  0
 22 21  2  0
 23 22  1  0
 24 23  1  0
 25 23  1  0
 26 25  2  0
 27 21  1  0
 27 25  1  0
 28 27  1  0
 29 19  1  0
 29 28  2  0
 30  1  1  0
 31  1  1  0
 32  1  1  0
 33  4  1  0
 34  5  1  0
 35  7  1  0
 36  8  1  0
 37 12  1  0
 38 12  1  0
 39 13  1  0
 40 13  1  0
 41 17  1  0
 42 17  1  0
 43 18  1  0
 44 18  1  0
 45 20  1  0
 46 24  1  0
 47 24  1  0
 48 24  1  0
 49 28  1  0
 50 29  1  0
 51 30  1  0
 52 30  1  0
 53 30  1  0
 54 31  1  0
 55 31  1  0
 56 31  1  0
M  END
>  <ID>  (35) 
compound_15

>  <series>  (35) 
1

>  <pKi>  (35) 
9.4000

>  <FEP_pKi>  (35) 
8.9000

>  <smiles>  (35) 
CC(C)N(c1ccc(C(=O)N2CCC(F)(F)CC2)cc1)c1ccn2c(=O)n(C)nc2c1

$$$$
compound_16
     RDKit          3D

 57 61  0  0  1  0  0  0  0  0999 V2000
   -7.4234   15.4801   14.6183 C   0  0  0  0  0  0  0  0  0  0  0  0
   -6.3048   14.8391   13.8536 N   0  0  0  0  0  0  0  0  0  0  0  0
   -5.0175   14.4587   14.3345 C   0  0  0  0  0  0  0  0  0  0  0  0
   -4.5389   14.9213   15.5947 C   0  0  0  0  0  0  0  0  0  0  0  0
   -3.3930   14.3490   16.1608 C   0  0  0  0  0  0  0  0  0  0  0  0
   -2.7214   13.2975   15.5017 C   0  0  0  0  0  0  0  0  0  0  0  0
   -3.1615   12.8905   14.2409 C   0  0  0  0  0  0  0  0  0  0  0  0
   -4.2807   13.4823   13.6644 C   0  0  0  0  0  0  0  0  0  0  0  0
   -1.5170   12.6243   16.0745 C   0  0  0  0  0  0  0  0  0  0  0  0
   -0.4800   12.6736   15.4172 O   0  0  0  0  0  0  0  0  0  0  0  0
   -1.6275   11.9527   17.2452 N   0  0  0  0  0  0  0  0  0  0  0  0
   -2.8679   11.7654   18.0039 C   0  0  0  0  0  0  0  0  0  0  0  0
   -2.7146   12.4416   19.3698 C   0  0  0  0  0  0  0  0  0  0  0  0
   -1.4765   11.9171   20.1086 C   0  0  0  0  0  0  0  0  0  0  0  0
   -1.7171   10.6665   20.4839 F   0  0  0  0  0  0  0  0  0  0  0  0
   -1.2669   12.6425   21.2077 F   0  0  0  0  0  0  0  0  0  0  0  0
   -0.2175   11.9254   19.2307 C   0  0  0  0  0  0  0  0  0  0  0  0
   -0.4912   11.2717   17.8708 C   0  0  0  0  0  0  0  0  0  0  0  0
   -6.6343   14.6484   12.5335 C   0  0  0  0  0  0  0  0  0  0  0  0
   -6.6735   15.6872   11.6508 C   0  0  0  0  0  0  0  0  0  0  0  0
   -7.6726   15.7166   10.6046 C   0  0  0  0  0  0  0  0  0  0  0  0
   -7.9685   16.5888    9.7028 N   0  0  0  0  0  0  0  0  0  0  0  0
   -9.0196   16.0188    9.0609 N   0  0  0  0  0  0  0  0  0  0  0  0
   -9.6254   16.7046    7.9283 C   0  0  0  0  0  0  0  0  0  0  0  0
   -9.3445   14.8071    9.5270 C   0  0  0  0  0  0  0  0  0  0  0  0
  -10.1905   14.0333    9.0783 O   0  0  0  0  0  0  0  0  0  0  0  0
   -8.5070   14.6206   10.5487 N   0  0  0  0  0  0  0  0  0  0  0  0
   -8.1706   13.4219   11.2071 C   0  0  0  0  0  0  0  0  0  0  0  0
   -7.2620   13.4052   12.1749 C   0  0  0  0  0  0  0  0  0  0  0  0
   -7.9603   16.8121   14.0185 C   0  0  0  0  0  0  0  0  0  0  0  0
   -8.8857   15.0765   14.6560 C   0  0  0  0  0  0  0  0  0  0  0  0
   -9.2430   16.5525   14.7953 C   0  0  0  0  0  0  0  0  0  0  0  0
   -7.1270   15.5916   15.6603 H   0  0  0  0  0  0  0  0  0  0  0  0
   -5.0859   15.6591   16.1642 H   0  0  0  0  0  0  0  0  0  0  0  0
   -3.0491   14.6948   17.1261 H   0  0  0  0  0  0  0  0  0  0  0  0
   -2.6359   12.1182   13.6974 H   0  0  0  0  0  0  0  0  0  0  0  0
   -4.5317   13.1543   12.6800 H   0  0  0  0  0  0  0  0  0  0  0  0
   -3.7611   12.1330   17.5042 H   0  0  0  0  0  0  0  0  0  0  0  0
   -3.0433   10.6981   18.1333 H   0  0  0  0  0  0  0  0  0  0  0  0
   -2.6238   13.5194   19.2315 H   0  0  0  0  0  0  0  0  0  0  0  0
   -3.6085   12.2852   19.9748 H   0  0  0  0  0  0  0  0  0  0  0  0
    0.1166   12.9509   19.0696 H   0  0  0  0  0  0  0  0  0  0  0  0
    0.5983   11.4122   19.7417 H   0  0  0  0  0  0  0  0  0  0  0  0
   -0.7320   10.2146   17.9794 H   0  0  0  0  0  0  0  0  0  0  0  0
    0.4133   11.3003   17.2629 H   0  0  0  0  0  0  0  0  0  0  0  0
   -6.1814   16.6225   11.8637 H   0  0  0  0  0  0  0  0  0  0  0  0
  -10.6946   16.8363    8.0972 H   0  0  0  0  0  0  0  0  0  0  0  0
   -9.1846   17.6912    7.7709 H   0  0  0  0  0  0  0  0  0  0  0  0
   -9.4902   16.1216    7.0169 H   0  0  0  0  0  0  0  0  0  0  0  0
   -8.6030   12.5177   10.8011 H   0  0  0  0  0  0  0  0  0  0  0  0
   -6.9914   12.4584   12.6160 H   0  0  0  0  0  0  0  0  0  0  0  0
   -7.4549   17.7286   14.3266 H   0  0  0  0  0  0  0  0  0  0  0  0
   -8.0899   16.7749   12.9339 H   0  0  0  0  0  0  0  0  0  0  0  0
   -9.3273   14.8215   13.7326 H   0  0  0  0  0  0  0  0  0  0  0  0
   -9.1930   14.4389   15.4835 H   0  0  0  0  0  0  0  0  0  0  0  0
   -9.2143   16.8933   15.8249 H   0  0  0  0  0  0  0  0  0  0  0  0
  -10.1594   16.8581   14.2910 H   0  0  0  0  0  0  0  0  0  0  0  0
  2  1  1  0
  3  2  1  0
  4  3  1  0
  5  4  2  0
  6  5  1  0
  7  6  2  0
  8  3  2  0
  8  7  1  0
  9  6  1  0
 10  9  2  0
 11  9  1  0
 12 11  1  0
 13 12  1  0
 14 13  1  0
 15 14  1  0
 16 14  1  0
 17 14  1  0
 18 11  1  0
 18 17  1  0
 19  2  1  0
 20 19  2  0
 21 20  1  0
 22 21  2  0
 23 22  1  0
 24 23  1  0
 25 23  1  0
 26 25  2  0
 27 21  1  0
 27 25  1  0
 28 27  1  0
 29 19  1  0
 29 28  2  0
 30  1  1  0
 31  1  1  0
 32 30  1  0
 32 31  1  0
 33  1  1  0
 34  4  1  0
 35  5  1  0
 36  7  1  0
 37  8  1  0
 38 12  1  0
 39 12  1  0
 40 13  1  0
 41 13  1  0
 42 17  1  0
 43 17  1  0
 44 18  1  0
 45 18  1  0
 46 20  1  0
 47 24  1  0
 48 24  1  0
 49 24  1  0
 50 28  1  0
 51 29  1  0
 52 30  1  0
 53 30  1  0
 54 31  1  0
 55 31  1  0
 56 32  1  0
 57 32  1  0
M  END
>  <ID>  (36) 
compound_16

>  <series>  (36) 
1

>  <pKi>  (36) 
8.9000

>  <FEP_pKi>  (36) 
7.6000

>  <smiles>  (36) 
Cn1nc2cc(N(c3ccc(C(=O)N4CCC(F)(F)CC4)cc3)C3CCC3)ccn2c1=O

$$$$
compound_36
     RDKit          3D

 50 53  0  0  1  0  0  0  0  0999 V2000
   -0.4431   12.7332   15.4645 O   0  0  0  0  0  0  0  0  0  0  0  0
   -1.5013   12.6463   16.0935 C   0  0  0  0  0  0  0  0  0  0  0  0
   -2.7209   13.2851   15.5035 C   0  0  0  0  0  0  0  0  0  0  0  0
   -3.3896   14.3419   16.1637 C   0  0  0  0  0  0  0  0  0  0  0  0
   -4.5329   14.9269   15.5850 C   0  0  0  0  0  0  0  0  0  0  0  0
   -5.0154   14.4469   14.3507 C   0  0  0  0  0  0  0  0  0  0  0  0
   -6.2261   15.0570   13.6932 C   0  0  0  0  0  0  0  0  0  0  0  0
   -7.0711   14.0741   13.0955 O   0  0  0  0  0  0  0  0  0  0  0  0
   -7.6629   14.3291   11.8685 C   0  0  0  0  0  0  0  0  0  0  0  0
   -7.9178   15.6868   11.5603 C   0  0  0  0  0  0  0  0  0  0  0  0
   -8.5468   16.0537   10.3563 C   0  0  0  0  0  0  0  0  0  0  0  0
   -8.9074   15.0689    9.4244 C   0  0  0  0  0  0  0  0  0  0  0  0
   -8.6245   13.7218    9.6995 C   0  0  0  0  0  0  0  0  0  0  0  0
   -8.0113   13.3329   10.9120 C   0  0  0  0  0  0  0  0  0  0  0  0
   -7.7246   11.9068   11.1158 C   0  0  0  0  0  0  0  0  0  0  0  0
   -6.9236   11.3355   12.1502 C   0  0  0  0  0  0  0  0  0  0  0  0
   -6.8795   10.0218   12.0552 N   0  0  0  0  0  0  0  0  0  0  0  0
   -7.7051    9.7184   11.0234 N   0  0  0  0  0  0  0  0  0  0  0  0
   -8.0346   10.8304   10.2967 C   0  0  0  0  0  0  0  0  0  0  0  0
   -4.3149   13.4334   13.6669 C   0  0  0  0  0  0  0  0  0  0  0  0
   -3.1770   12.8498   14.2436 C   0  0  0  0  0  0  0  0  0  0  0  0
   -1.6229   11.9720   17.2648 N   0  0  0  0  0  0  0  0  0  0  0  0
   -2.8598   11.7746   18.0324 C   0  0  0  0  0  0  0  0  0  0  0  0
   -2.7136   12.4347   19.4170 C   0  0  0  0  0  0  0  0  0  0  0  0
   -1.4685   11.9113   20.1612 C   0  0  0  0  0  0  0  0  0  0  0  0
   -0.2128   11.9280   19.2694 C   0  0  0  0  0  0  0  0  0  0  0  0
   -0.4963   11.2824   17.9014 C   0  0  0  0  0  0  0  0  0  0  0  0
   -3.0358   14.6999   17.1203 H   0  0  0  0  0  0  0  0  0  0  0  0
   -5.0377   15.7341   16.0965 H   0  0  0  0  0  0  0  0  0  0  0  0
   -6.7700   15.6974   14.3890 H   0  0  0  0  0  0  0  0  0  0  0  0
   -5.6999   15.4196   12.9903 H   0  0  0  0  0  0  0  0  0  0  0  0
   -7.6364   16.4727   12.2459 H   0  0  0  0  0  0  0  0  0  0  0  0
   -8.7473   17.0922   10.1426 H   0  0  0  0  0  0  0  0  0  0  0  0
   -9.3925   15.3431    8.4991 H   0  0  0  0  0  0  0  0  0  0  0  0
   -8.8921   12.9720    8.9677 H   0  0  0  0  0  0  0  0  0  0  0  0
   -6.2791   11.8314   12.8546 H   0  0  0  0  0  0  0  0  0  0  0  0
   -7.7947    8.7742   10.6519 H   0  0  0  0  0  0  0  0  0  0  0  0
   -8.7122   10.7335    9.4490 H   0  0  0  0  0  0  0  0  0  0  0  0
   -4.6537   13.1008   12.6974 H   0  0  0  0  0  0  0  0  0  0  0  0
   -2.6595   12.0626   13.7148 H   0  0  0  0  0  0  0  0  0  0  0  0
   -3.0383   10.7039   18.1409 H   0  0  0  0  0  0  0  0  0  0  0  0
   -3.7430   12.1615   17.5293 H   0  0  0  0  0  0  0  0  0  0  0  0
   -3.6087   12.2571   20.0150 H   0  0  0  0  0  0  0  0  0  0  0  0
   -2.6393   13.5162   19.2964 H   0  0  0  0  0  0  0  0  0  0  0  0
   -1.2918   12.5037   21.0595 H   0  0  0  0  0  0  0  0  0  0  0  0
   -1.6528   10.8897   20.4975 H   0  0  0  0  0  0  0  0  0  0  0  0
    0.1231   12.9550   19.1255 H   0  0  0  0  0  0  0  0  0  0  0  0
    0.6044   11.4061   19.7687 H   0  0  0  0  0  0  0  0  0  0  0  0
   -0.7543   10.2297   18.0227 H   0  0  0  0  0  0  0  0  0  0  0  0
    0.4026   11.2938   17.2869 H   0  0  0  0  0  0  0  0  0  0  0  0
  2  1  2  0
  3  2  1  0
  4  3  1  0
  5  4  2  0
  6  5  1  0
  7  6  1  0
  8  7  1  0
  9  8  1  0
 10  9  2  0
 11 10  1  0
 12 11  2  0
 13 12  1  0
 14  9  1  0
 14 13  2  0
 15 14  1  0
 16 15  1  0
 17 16  2  0
 18 17  1  0
 19 15  2  0
 19 18  1  0
 20  6  2  0
 21  3  2  0
 21 20  1  0
 22  2  1  0
 23 22  1  0
 24 23  1  0
 25 24  1  0
 26 25  1  0
 27 22  1  0
 27 26  1  0
 28  4  1  0
 29  5  1  0
 30  7  1  0
 31  7  1  0
 32 10  1  0
 33 11  1  0
 34 12  1  0
 35 13  1  0
 36 16  1  0
 37 18  1  0
 38 19  1  0
 39 20  1  0
 40 21  1  0
 41 23  1  0
 42 23  1  0
 43 24  1  0
 44 24  1  0
 45 25  1  0
 46 25  1  0
 47 26  1  0
 48 26  1  0
 49 27  1  0
 50 27  1  0
M  END
>  <ID>  (37) 
compound_36

>  <series>  (37) 
3

>  <pKi>  (37) 
8.8463

>  <FEP_pKi>  (37) 
8.6804

>  <smiles>  (37) 
O=C(c1ccc(COc2ccccc2-c2cn[nH]c2)cc1)N1CCCCC1

$$$$
compound_34
     RDKit          3D

 53 56  0  0  1  0  0  0  0  0999 V2000
   -0.5798   11.3891   18.1201 C   0  0  0  0  0  0  0  0  0  0  0  0
   -0.2998   12.0018   19.5025 C   0  0  0  0  0  0  0  0  0  0  0  0
   -1.5540   11.9557   20.3928 C   0  0  0  0  0  0  0  0  0  0  0  0
   -2.7862   12.5188   19.6608 C   0  0  0  0  0  0  0  0  0  0  0  0
   -2.9554   11.8686   18.2759 C   0  0  0  0  0  0  0  0  0  0  0  0
   -1.7274   12.0521   17.4887 N   0  0  0  0  0  0  0  0  0  0  0  0
   -3.3455   12.5534   14.4469 C   0  0  0  0  0  0  0  0  0  0  0  0
   -4.4203   13.1125   13.7415 C   0  0  0  0  0  0  0  0  0  0  0  0
   -8.6429   11.0045    9.9856 N   0  0  0  0  0  0  0  0  0  0  0  0
   -9.6802    9.2003    9.2227 O   0  0  0  0  0  0  0  0  0  0  0  0
   -9.0400    9.7277   10.1089 C   0  0  0  0  0  0  0  0  0  0  0  0
   -8.7333    9.0978   11.3805 C   0  0  0  0  0  0  0  0  0  0  0  0
   -8.3167    9.8500   12.4062 C   0  0  0  0  0  0  0  0  0  0  0  0
   -8.1295   11.2888   12.2591 C   0  0  0  0  0  0  0  0  0  0  0  0
   -8.2952   11.8536   11.0463 C   0  0  0  0  0  0  0  0  0  0  0  0
   -8.2742   13.3089   10.7539 C   0  0  0  0  0  0  0  0  0  0  0  0
   -8.9943   13.7184    9.6049 C   0  0  0  0  0  0  0  0  0  0  0  0
   -9.1236   15.0693    9.2687 C   0  0  0  0  0  0  0  0  0  0  0  0
   -8.5799   16.0385   10.1144 C   0  0  0  0  0  0  0  0  0  0  0  0
   -7.8512   15.6600   11.2534 C   0  0  0  0  0  0  0  0  0  0  0  0
   -7.6613   14.2938   11.5817 C   0  0  0  0  0  0  0  0  0  0  0  0
   -6.8908   13.9026   12.6571 O   0  0  0  0  0  0  0  0  0  0  0  0
   -6.1633   14.8908   13.3849 C   0  0  0  0  0  0  0  0  0  0  0  0
   -5.0555   14.2747   14.2118 C   0  0  0  0  0  0  0  0  0  0  0  0
   -4.6035   14.8859   15.4007 C   0  0  0  0  0  0  0  0  0  0  0  0
   -3.5119   14.3371   16.1057 C   0  0  0  0  0  0  0  0  0  0  0  0
   -2.8755   13.1718   15.6216 C   0  0  0  0  0  0  0  0  0  0  0  0
   -1.6382   12.6359   16.2674 C   0  0  0  0  0  0  0  0  0  0  0  0
   -0.5896   12.7196   15.6232 O   0  0  0  0  0  0  0  0  0  0  0  0
    0.3257   11.4264   17.5165 H   0  0  0  0  0  0  0  0  0  0  0  0
   -0.8212   10.3335   18.2201 H   0  0  0  0  0  0  0  0  0  0  0  0
    0.0347   13.0321   19.3787 H   0  0  0  0  0  0  0  0  0  0  0  0
    0.5195   11.4708   19.9885 H   0  0  0  0  0  0  0  0  0  0  0  0
   -1.7501   10.9213   20.6800 H   0  0  0  0  0  0  0  0  0  0  0  0
   -1.3801   12.5036   21.3195 H   0  0  0  0  0  0  0  0  0  0  0  0
   -3.6817   12.3572   20.2622 H   0  0  0  0  0  0  0  0  0  0  0  0
   -2.6848   13.5986   19.5450 H   0  0  0  0  0  0  0  0  0  0  0  0
   -3.8433   12.2700   17.7939 H   0  0  0  0  0  0  0  0  0  0  0  0
   -3.1455   10.8000   18.3865 H   0  0  0  0  0  0  0  0  0  0  0  0
   -2.8642   11.6685   14.0594 H   0  0  0  0  0  0  0  0  0  0  0  0
   -4.7472   12.6554   12.8233 H   0  0  0  0  0  0  0  0  0  0  0  0
   -8.8167   11.4530    9.1001 H   0  0  0  0  0  0  0  0  0  0  0  0
   -8.8810    8.0368   11.5168 H   0  0  0  0  0  0  0  0  0  0  0  0
   -8.1473    9.3339   13.3303 H   0  0  0  0  0  0  0  0  0  0  0  0
   -7.9314   11.8883   13.1330 H   0  0  0  0  0  0  0  0  0  0  0  0
   -9.5021   13.0231    8.9556 H   0  0  0  0  0  0  0  0  0  0  0  0
   -9.6832   15.3634    8.3934 H   0  0  0  0  0  0  0  0  0  0  0  0
   -8.7099   17.0856    9.8846 H   0  0  0  0  0  0  0  0  0  0  0  0
   -7.4487   16.4575   11.8581 H   0  0  0  0  0  0  0  0  0  0  0  0
   -6.8425   15.4541   14.0255 H   0  0  0  0  0  0  0  0  0  0  0  0
   -5.6652   15.5897   12.7123 H   0  0  0  0  0  0  0  0  0  0  0  0
   -5.0784   15.7843   15.7644 H   0  0  0  0  0  0  0  0  0  0  0  0
   -3.1518   14.8267   17.0008 H   0  0  0  0  0  0  0  0  0  0  0  0
  2  1  1  0
  3  2  1  0
  4  3  1  0
  5  4  1  0
  6  1  1  0
  6  5  1  0
  8  7  2  0
 11  9  1  0
 11 10  2  0
 12 11  1  0
 13 12  2  0
 14 13  1  0
 15  9  1  0
 15 14  2  0
 16 15  1  0
 17 16  2  0
 18 17  1  0
 19 18  2  0
 20 19  1  0
 21 16  1  0
 21 20  2  0
 22 21  1  0
 23 22  1  0
 24  8  1  0
 24 23  1  0
 25 24  2  0
 26 25  1  0
 27  7  1  0
 27 26  2  0
 28  6  1  0
 28 27  1  0
 29 28  2  0
 30  1  1  0
 31  1  1  0
 32  2  1  0
 33  2  1  0
 34  3  1  0
 35  3  1  0
 36  4  1  0
 37  4  1  0
 38  5  1  0
 39  5  1  0
 40  7  1  0
 41  8  1  0
 42  9  1  0
 43 12  1  0
 44 13  1  0
 45 14  1  0
 46 17  1  0
 47 18  1  0
 48 19  1  0
 49 20  1  0
 50 23  1  0
 51 23  1  0
 52 25  1  0
 53 26  1  0
M  END
>  <ID>  (38) 
compound_34

>  <series>  (38) 
3

>  <pKi>  (38) 
8.3711

>  <FEP_pKi>  (38) 
8.5704

>  <smiles>  (38) 
O=C(c1ccc(COc2ccccc2-c2cccc(=O)[nH]2)cc1)N1CCCCC1

$$$$
compound_51
     RDKit          3D

 53 58  0  0  1  0  0  0  0  0999 V2000
   -9.9431   14.5069    7.4574 C   0  0  0  0  0  0  0  0  0  0  0  0
   -9.2353   14.2806    8.7110 N   0  0  0  0  0  0  0  0  0  0  0  0
   -8.6762   15.3228    9.3783 N   0  0  0  0  0  0  0  0  0  0  0  0
   -8.1817   14.7696   10.4336 C   0  0  0  0  0  0  0  0  0  0  0  0
   -7.4651   15.2953   11.5782 C   0  0  0  0  0  0  0  0  0  0  0  0
   -7.0521   14.4849   12.5845 C   0  0  0  0  0  0  0  0  0  0  0  0
   -7.3303   13.0558   12.5079 C   0  0  0  0  0  0  0  0  0  0  0  0
   -7.9888   12.5517   11.4513 C   0  0  0  0  0  0  0  0  0  0  0  0
   -8.4030   13.4077   10.4286 N   0  0  0  0  0  0  0  0  0  0  0  0
   -9.0760   13.1064    9.3229 C   0  0  0  0  0  0  0  0  0  0  0  0
   -9.4702   12.0050    8.9438 O   0  0  0  0  0  0  0  0  0  0  0  0
   -6.4122   15.0402   13.7664 C   0  0  0  0  0  0  0  0  0  0  0  0
   -7.0001   16.0635   14.4029 C   0  0  0  0  0  0  0  0  0  0  0  0
   -6.4990   16.6592   15.6945 C   0  0  0  0  0  0  0  0  0  0  0  0
   -5.2150   16.2279   16.1065 O   0  0  0  0  0  0  0  0  0  0  0  0
   -4.6449   15.1470   15.4896 C   0  0  0  0  0  0  0  0  0  0  0  0
   -5.1487   14.5441   14.3164 C   0  0  0  0  0  0  0  0  0  0  0  0
   -4.4297   13.4846   13.7187 C   0  0  0  0  0  0  0  0  0  0  0  0
   -3.3344   12.9191   14.3797 C   0  0  0  0  0  0  0  0  0  0  0  0
   -2.9286   13.4573   15.6125 C   0  0  0  0  0  0  0  0  0  0  0  0
   -3.5099   14.6281   16.1012 C   0  0  0  0  0  0  0  0  0  0  0  0
   -1.9561   12.7796   16.4137 C   0  0  0  0  0  0  0  0  0  0  0  0
   -1.9810   12.6043   17.7591 N   0  0  0  0  0  0  0  0  0  0  0  0
   -0.8249   11.9671   17.9438 C   0  0  0  0  0  0  0  0  0  0  0  0
   -0.2435   11.6002   16.8202 N   0  0  0  0  0  0  0  0  0  0  0  0
   -0.8959   12.2526   15.8289 N   0  0  0  0  0  0  0  0  0  0  0  0
   -0.2245   11.7257   19.2683 C   0  0  0  0  0  0  0  0  0  0  0  0
   -2.9274   13.0666   18.7620 C   0  0  0  0  0  0  0  0  0  0  0  0
   -3.3078   12.0280   19.8273 C   0  0  0  0  0  0  0  0  0  0  0  0
   -2.1968   11.6431   20.8104 C   0  0  0  0  0  0  0  0  0  0  0  0
   -1.0960   10.8458   20.1355 C   0  0  0  0  0  0  0  0  0  0  0  0
   -9.4265   14.0157    6.6324 H   0  0  0  0  0  0  0  0  0  0  0  0
  -10.0043   15.5714    7.2326 H   0  0  0  0  0  0  0  0  0  0  0  0
  -10.9615   14.1177    7.5113 H   0  0  0  0  0  0  0  0  0  0  0  0
   -7.2761   16.3568   11.6538 H   0  0  0  0  0  0  0  0  0  0  0  0
   -7.0270   12.4001   13.3109 H   0  0  0  0  0  0  0  0  0  0  0  0
   -8.2526   11.5117   11.3310 H   0  0  0  0  0  0  0  0  0  0  0  0
   -7.9414   16.4586   14.0493 H   0  0  0  0  0  0  0  0  0  0  0  0
   -6.4969   17.7455   15.6081 H   0  0  0  0  0  0  0  0  0  0  0  0
   -7.2068   16.3897   16.4760 H   0  0  0  0  0  0  0  0  0  0  0  0
   -4.7512   13.0383   12.7943 H   0  0  0  0  0  0  0  0  0  0  0  0
   -2.8649   12.0361   13.9703 H   0  0  0  0  0  0  0  0  0  0  0  0
   -3.1497   15.0928   17.0068 H   0  0  0  0  0  0  0  0  0  0  0  0
    0.7279   11.2201   19.1109 H   0  0  0  0  0  0  0  0  0  0  0  0
    0.0103   12.6805   19.7417 H   0  0  0  0  0  0  0  0  0  0  0  0
   -2.5516   13.9817   19.2141 H   0  0  0  0  0  0  0  0  0  0  0  0
   -3.8433   13.3378   18.2521 H   0  0  0  0  0  0  0  0  0  0  0  0
   -4.1382   12.4275   20.4127 H   0  0  0  0  0  0  0  0  0  0  0  0
   -3.7003   11.1392   19.3329 H   0  0  0  0  0  0  0  0  0  0  0  0
   -1.7911   12.5272   21.3053 H   0  0  0  0  0  0  0  0  0  0  0  0
   -2.6239   11.0305   21.6074 H   0  0  0  0  0  0  0  0  0  0  0  0
   -0.4382   10.4032   20.8693 H   0  0  0  0  0  0  0  0  0  0  0  0
   -1.5090   10.0083   19.5694 H   0  0  0  0  0  0  0  0  0  0  0  0
  2  1  1  0
  3  2  1  0
  4  3  2  0
  5  4  1  0
  6  5  2  0
  7  6  1  0
  8  7  2  0
  9  4  1  0
  9  8  1  0
 10  2  1  0
 10  9  1  0
 11 10  2  0
 12  6  1  0
 13 12  2  0
 14 13  1  0
 15 14  1  0
 16 15  1  0
 17 12  1  0
 17 16  2  0
 18 17  1  0
 19 18  2  0
 20 19  1  0
 21 16  1  0
 21 20  2  0
 22 20  1  0
 23 22  1  0
 24 23  1  0
 25 24  2  0
 26 22  2  0
 26 25  1  0
 27 24  1  0
 28 23  1  0
 29 28  1  0
 30 29  1  0
 31 27  1  0
 31 30  1  0
 32  1  1  0
 33  1  1  0
 34  1  1  0
 35  5  1  0
 36  7  1  0
 37  8  1  0
 38 13  1  0
 39 14  1  0
 40 14  1  0
 41 18  1  0
 42 19  1  0
 43 21  1  0
 44 27  1  0
 45 27  1  0
 46 28  1  0
 47 28  1  0
 48 29  1  0
 49 29  1  0
 50 30  1  0
 51 30  1  0
 52 31  1  0
 53 31  1  0
M  END
>  <ID>  (39) 
compound_51

>  <series>  (39) 
4_5

>  <pKi>  (39) 
10.0939

>  <FEP_pKi>  (39) 
9.4431

>  <smiles>  (39) 
Cn1nc2cc(C3=CCOc4cc(-c5nnc6n5CCCCC6)ccc43)ccn2c1=O

$$$$
compound_19
     RDKit          3D

 54 58  0  0  1  0  0  0  0  0999 V2000
   -6.8875   16.1597   14.2735 C   0  0  0  0  0  0  0  0  0  0  0  0
   -6.2279   14.9932   13.6877 N   0  0  0  0  0  0  0  0  0  0  0  0
   -6.8906   14.4305   12.5907 C   0  0  0  0  0  0  0  0  0  0  0  0
   -7.2981   15.2215   11.5587 C   0  0  0  0  0  0  0  0  0  0  0  0
   -8.1116   14.7106   10.4728 C   0  0  0  0  0  0  0  0  0  0  0  0
   -8.4439   13.3705   10.5554 N   0  0  0  0  0  0  0  0  0  0  0  0
   -8.0416   12.5280   11.5955 C   0  0  0  0  0  0  0  0  0  0  0  0
   -7.2804   13.0210   12.5906 C   0  0  0  0  0  0  0  0  0  0  0  0
   -8.5854   15.2452    9.3970 N   0  0  0  0  0  0  0  0  0  0  0  0
   -9.2196   14.2064    8.7889 N   0  0  0  0  0  0  0  0  0  0  0  0
   -9.8802   14.4110    7.5047 C   0  0  0  0  0  0  0  0  0  0  0  0
   -9.1402   13.0573    9.4707 C   0  0  0  0  0  0  0  0  0  0  0  0
   -9.6125   11.9607    9.1661 O   0  0  0  0  0  0  0  0  0  0  0  0
   -5.0486   14.4825   14.3297 C   0  0  0  0  0  0  0  0  0  0  0  0
   -4.5455   14.9348   15.5940 C   0  0  0  0  0  0  0  0  0  0  0  0
   -3.3639   14.3305   16.1189 C   0  0  0  0  0  0  0  0  0  0  0  0
   -3.1517   15.0462   17.1665 N   0  0  0  0  0  0  0  0  0  0  0  0
   -4.2402   15.7962   17.5664 C   0  0  0  0  0  0  0  0  0  0  0  0
   -5.0938   15.8500   16.5492 C   0  0  0  0  0  0  0  0  0  0  0  0
   -2.7117   13.2702   15.4693 C   0  0  0  0  0  0  0  0  0  0  0  0
   -1.5089   12.6123   16.0566 C   0  0  0  0  0  0  0  0  0  0  0  0
   -1.6199   11.9628   17.2423 N   0  0  0  0  0  0  0  0  0  0  0  0
   -2.8541   11.7788   18.0225 C   0  0  0  0  0  0  0  0  0  0  0  0
   -2.6951   12.4429   19.4040 C   0  0  0  0  0  0  0  0  0  0  0  0
   -1.4508   11.9063   20.1327 C   0  0  0  0  0  0  0  0  0  0  0  0
   -1.6817   10.6484   20.5021 F   0  0  0  0  0  0  0  0  0  0  0  0
   -1.2266   12.6298   21.2275 F   0  0  0  0  0  0  0  0  0  0  0  0
   -0.1963   11.9275   19.2353 C   0  0  0  0  0  0  0  0  0  0  0  0
   -0.4790   11.2828   17.8656 C   0  0  0  0  0  0  0  0  0  0  0  0
   -0.4697   12.6727   15.4080 O   0  0  0  0  0  0  0  0  0  0  0  0
   -3.1826   12.8632   14.2081 C   0  0  0  0  0  0  0  0  0  0  0  0
   -4.3143   13.4769   13.6468 C   0  0  0  0  0  0  0  0  0  0  0  0
   -7.6765   16.5687   13.6430 H   0  0  0  0  0  0  0  0  0  0  0  0
   -7.3956   15.8696   15.1920 H   0  0  0  0  0  0  0  0  0  0  0  0
   -6.1843   16.9723   14.4548 H   0  0  0  0  0  0  0  0  0  0  0  0
   -7.0199   16.2650   11.5692 H   0  0  0  0  0  0  0  0  0  0  0  0
   -8.3879   11.5063   11.5343 H   0  0  0  0  0  0  0  0  0  0  0  0
   -6.9742   12.3738   13.3986 H   0  0  0  0  0  0  0  0  0  0  0  0
   -9.3724   13.8513    6.7190 H   0  0  0  0  0  0  0  0  0  0  0  0
  -10.9154   14.0707    7.5473 H   0  0  0  0  0  0  0  0  0  0  0  0
   -9.8812   15.4643    7.2206 H   0  0  0  0  0  0  0  0  0  0  0  0
   -2.3511   15.0208   17.7908 H   0  0  0  0  0  0  0  0  0  0  0  0
   -4.2568   16.3257   18.5078 H   0  0  0  0  0  0  0  0  0  0  0  0
   -5.9945   16.4380   16.5527 H   0  0  0  0  0  0  0  0  0  0  0  0
   -3.7479   12.1558   17.5309 H   0  0  0  0  0  0  0  0  0  0  0  0
   -3.0361   10.7119   18.1487 H   0  0  0  0  0  0  0  0  0  0  0  0
   -2.6067   13.5218   19.2881 H   0  0  0  0  0  0  0  0  0  0  0  0
   -3.5866   12.2734   20.0100 H   0  0  0  0  0  0  0  0  0  0  0  0
    0.1306   12.9560   19.0816 H   0  0  0  0  0  0  0  0  0  0  0  0
    0.6276   11.4138   19.7334 H   0  0  0  0  0  0  0  0  0  0  0  0
   -0.7189   10.2238   17.9705 H   0  0  0  0  0  0  0  0  0  0  0  0
    0.4261   11.3187   17.2584 H   0  0  0  0  0  0  0  0  0  0  0  0
   -2.6730   12.0829   13.6612 H   0  0  0  0  0  0  0  0  0  0  0  0
   -4.6193   13.1477   12.6664 H   0  0  0  0  0  0  0  0  0  0  0  0
  2  1  1  0
  3  2  1  0
  4  3  2  0
  5  4  1  0
  6  5  1  0
  7  6  1  0
  8  3  1  0
  8  7  2  0
  9  5  2  0
 10  9  1  0
 11 10  1  0
 12  6  1  0
 12 10  1  0
 13 12  2  0
 14  2  1  0
 15 14  2  0
 16 15  1  0
 17 16  1  0
 18 17  1  0
 19 15  1  0
 19 18  2  0
 20 16  2  0
 21 20  1  0
 22 21  1  0
 23 22  1  0
 24 23  1  0
 25 24  1  0
 26 25  1  0
 27 25  1  0
 28 25  1  0
 29 22  1  0
 29 28  1  0
 30 21  2  0
 31 20  1  0
 32 14  1  0
 32 31  2  0
 33  1  1  0
 34  1  1  0
 35  1  1  0
 36  4  1  0
 37  7  1  0
 38  8  1  0
 39 11  1  0
 40 11  1  0
 41 11  1  0
 42 17  1  0
 43 18  1  0
 44 19  1  0
 45 23  1  0
 46 23  1  0
 47 24  1  0
 48 24  1  0
 49 28  1  0
 50 28  1  0
 51 29  1  0
 52 29  1  0
 53 31  1  0
 54 32  1  0
M  END
>  <ID>  (40) 
compound_19

>  <series>  (40) 
1

>  <pKi>  (40) 
8.8000

>  <FEP_pKi>  (40) 
11.2000

>  <smiles>  (40) 
CN(c1ccn2c(=O)n(C)nc2c1)c1ccc(C(=O)N2CCC(F)(F)CC2)c2[nH]ccc12

$$$$
compound_11
     RDKit          3D

 54 57  0  0  1  0  0  0  0  0999 V2000
   -0.4620   12.6645   15.4129 O   0  0  0  0  0  0  0  0  0  0  0  0
   -1.5121   12.6276   16.0509 C   0  0  0  0  0  0  0  0  0  0  0  0
   -2.7240   13.2898   15.4614 C   0  0  0  0  0  0  0  0  0  0  0  0
   -3.1931   12.8877   14.1994 C   0  0  0  0  0  0  0  0  0  0  0  0
   -4.3493   13.4786   13.6642 C   0  0  0  0  0  0  0  0  0  0  0  0
   -5.0836   14.4571   14.3813 C   0  0  0  0  0  0  0  0  0  0  0  0
   -6.3877   14.8067   13.9211 N   0  0  0  0  0  0  0  0  0  0  0  0
   -7.3506   15.5458   14.7494 C   0  0  0  0  0  0  0  0  0  0  0  0
   -6.8243   14.5874   12.6349 C   0  0  0  0  0  0  0  0  0  0  0  0
   -6.5611   15.4449   11.6048 C   0  0  0  0  0  0  0  0  0  0  0  0
   -6.8487   15.0424   10.2301 C   0  0  0  0  0  0  0  0  0  0  0  0
   -7.2492   13.7357   10.0778 N   0  0  0  0  0  0  0  0  0  0  0  0
   -7.6450   12.9335   11.1124 C   0  0  0  0  0  0  0  0  0  0  0  0
   -7.4792   13.3221   12.3818 C   0  0  0  0  0  0  0  0  0  0  0  0
   -6.7967   15.6118    9.0712 N   0  0  0  0  0  0  0  0  0  0  0  0
   -7.0574   14.5750    8.1982 N   0  0  0  0  0  0  0  0  0  0  0  0
   -6.7488   14.6617    6.7804 C   0  0  0  0  0  0  0  0  0  0  0  0
   -7.3266   13.4217    8.8016 C   0  0  0  0  0  0  0  0  0  0  0  0
   -7.5880   12.3305    8.2922 O   0  0  0  0  0  0  0  0  0  0  0  0
   -4.5213   14.9631   15.5797 C   0  0  0  0  0  0  0  0  0  0  0  0
   -5.0805   16.0599   16.1896 O   0  0  0  0  0  0  0  0  0  0  0  0
   -5.1428   16.0458   17.6006 C   0  0  0  0  0  0  0  0  0  0  0  0
   -3.3571   14.3637   16.1207 C   0  0  0  0  0  0  0  0  0  0  0  0
   -1.6210   11.9900   17.2408 N   0  0  0  0  0  0  0  0  0  0  0  0
   -2.8567   11.8082   18.0087 C   0  0  0  0  0  0  0  0  0  0  0  0
   -2.6926   12.4763   19.3878 C   0  0  0  0  0  0  0  0  0  0  0  0
   -1.4664   11.9100   20.1351 C   0  0  0  0  0  0  0  0  0  0  0  0
   -1.7252   10.6496   20.5014 F   0  0  0  0  0  0  0  0  0  0  0  0
   -1.2365   12.6110   21.2412 F   0  0  0  0  0  0  0  0  0  0  0  0
   -0.2051   11.9220   19.2507 C   0  0  0  0  0  0  0  0  0  0  0  0
   -0.4868   11.2976   17.8697 C   0  0  0  0  0  0  0  0  0  0  0  0
   -2.6861   12.1033   13.6561 H   0  0  0  0  0  0  0  0  0  0  0  0
   -4.7092   13.0907   12.7256 H   0  0  0  0  0  0  0  0  0  0  0  0
   -8.3530   15.1370   14.6145 H   0  0  0  0  0  0  0  0  0  0  0  0
   -7.1847   15.5605   15.8199 H   0  0  0  0  0  0  0  0  0  0  0  0
   -7.3924   16.5864   14.4313 H   0  0  0  0  0  0  0  0  0  0  0  0
   -6.0667   16.3830   11.8211 H   0  0  0  0  0  0  0  0  0  0  0  0
   -8.3075   12.1630   10.7782 H   0  0  0  0  0  0  0  0  0  0  0  0
   -7.9346   12.7596   13.1874 H   0  0  0  0  0  0  0  0  0  0  0  0
   -7.6562   14.6746    6.1776 H   0  0  0  0  0  0  0  0  0  0  0  0
   -6.1610   15.5350    6.5418 H   0  0  0  0  0  0  0  0  0  0  0  0
   -6.1562   13.7875    6.4940 H   0  0  0  0  0  0  0  0  0  0  0  0
   -5.9054   16.7431   17.9486 H   0  0  0  0  0  0  0  0  0  0  0  0
   -5.3770   15.0594   17.9938 H   0  0  0  0  0  0  0  0  0  0  0  0
   -4.1919   16.3589   18.0015 H   0  0  0  0  0  0  0  0  0  0  0  0
   -2.9388   14.7252   17.0480 H   0  0  0  0  0  0  0  0  0  0  0  0
   -3.7450   12.1805   17.5101 H   0  0  0  0  0  0  0  0  0  0  0  0
   -3.0366   10.7443   18.1416 H   0  0  0  0  0  0  0  0  0  0  0  0
   -2.5829   13.5536   19.2650 H   0  0  0  0  0  0  0  0  0  0  0  0
   -3.5912   12.3321   19.9859 H   0  0  0  0  0  0  0  0  0  0  0  0
    0.1360   12.9497   19.1130 H   0  0  0  0  0  0  0  0  0  0  0  0
    0.6050   11.3904   19.7512 H   0  0  0  0  0  0  0  0  0  0  0  0
   -0.7263   10.2377   17.9664 H   0  0  0  0  0  0  0  0  0  0  0  0
    0.4271   11.3336   17.2754 H   0  0  0  0  0  0  0  0  0  0  0  0
  2  1  2  0
  3  2  1  0
  4  3  1  0
  5  4  2  0
  6  5  1  0
  7  6  1  0
  8  7  1  0
  9  7  1  0
 10  9  2  0
 11 10  1  0
 12 11  1  0
 13 12  1  0
 14  9  1  0
 14 13  2  0
 15 11  2  0
 16 15  1  0
 17 16  1  0
 18 12  1  0
 18 16  1  0
 19 18  2  0
 20  6  2  0
 21 20  1  0
 22 21  1  0
 23  3  2  0
 23 20  1  0
 24  2  1  0
 25 24  1  0
 26 25  1  0
 27 26  1  0
 28 27  1  0
 29 27  1  0
 30 27  1  0
 31 24  1  0
 31 30  1  0
 32  4  1  0
 33  5  1  0
 34  8  1  0
 35  8  1  0
 36  8  1  0
 37 10  1  0
 38 13  1  0
 39 14  1  0
 40 17  1  0
 41 17  1  0
 42 17  1  0
 43 22  1  0
 44 22  1  0
 45 22  1  0
 46 23  1  0
 47 25  1  0
 48 25  1  0
 49 26  1  0
 50 26  1  0
 51 30  1  0
 52 30  1  0
 53 31  1  0
 54 31  1  0
M  END
>  <ID>  (41) 
compound_11

>  <series>  (41) 
1

>  <pKi>  (41) 
8.9000

>  <FEP_pKi>  (41) 
10.9000

>  <smiles>  (41) 
COc1cc(C(=O)N2CCC(F)(F)CC2)ccc1N(C)c1ccn2c(=O)n(C)nc2c1

$$$$
compound_32
     RDKit          3D

 52 55  0  0  1  0  0  0  0  0999 V2000
   -0.5761   12.7998   15.6221 O   0  0  0  0  0  0  0  0  0  0  0  0
   -1.6377   12.6981   16.2379 C   0  0  0  0  0  0  0  0  0  0  0  0
   -2.8651   13.2397   15.5681 C   0  0  0  0  0  0  0  0  0  0  0  0
   -3.1918   12.7653   14.2818 C   0  0  0  0  0  0  0  0  0  0  0  0
   -4.2883   13.2954   13.5854 C   0  0  0  0  0  0  0  0  0  0  0  0
   -5.0717   14.3132   14.1592 C   0  0  0  0  0  0  0  0  0  0  0  0
   -6.2040   14.9182   13.3535 C   0  0  0  0  0  0  0  0  0  0  0  0
   -6.9453   13.9348   12.6263 O   0  0  0  0  0  0  0  0  0  0  0  0
   -7.7175   14.3375   11.5480 C   0  0  0  0  0  0  0  0  0  0  0  0
   -7.9190   15.7126   11.2624 C   0  0  0  0  0  0  0  0  0  0  0  0
   -8.6432   16.1247   10.1344 C   0  0  0  0  0  0  0  0  0  0  0  0
   -9.1717   15.1789    9.2572 C   0  0  0  0  0  0  0  0  0  0  0  0
   -9.0433   13.8237    9.5589 C   0  0  0  0  0  0  0  0  0  0  0  0
   -8.3291   13.3663   10.6913 C   0  0  0  0  0  0  0  0  0  0  0  0
   -8.3348   11.9019   10.9027 C   0  0  0  0  0  0  0  0  0  0  0  0
   -8.1767   11.3311   12.1747 C   0  0  0  0  0  0  0  0  0  0  0  0
   -8.2504   10.0080   12.4228 N   0  0  0  0  0  0  0  0  0  0  0  0
   -8.6428    9.1752   11.4545 C   0  0  0  0  0  0  0  0  0  0  0  0
   -8.8585    9.6339   10.1578 C   0  0  0  0  0  0  0  0  0  0  0  0
   -9.3190    8.8004    9.2227 F   0  0  0  0  0  0  0  0  0  0  0  0
   -8.6438   10.9876    9.8646 C   0  0  0  0  0  0  0  0  0  0  0  0
   -4.7336   14.8139   15.4357 C   0  0  0  0  0  0  0  0  0  0  0  0
   -3.6329   14.2803   16.1389 C   0  0  0  0  0  0  0  0  0  0  0  0
   -1.7363   12.0656   17.4354 N   0  0  0  0  0  0  0  0  0  0  0  0
   -0.5926   11.3833   18.0538 C   0  0  0  0  0  0  0  0  0  0  0  0
   -0.2921   12.0000   19.4308 C   0  0  0  0  0  0  0  0  0  0  0  0
   -1.5393   11.9632   20.3337 C   0  0  0  0  0  0  0  0  0  0  0  0
   -2.7799   12.5204   19.6107 C   0  0  0  0  0  0  0  0  0  0  0  0
   -2.9550   11.8682   18.2278 C   0  0  0  0  0  0  0  0  0  0  0  0
   -2.5912   12.0007   13.8116 H   0  0  0  0  0  0  0  0  0  0  0  0
   -4.5101   12.9362   12.5937 H   0  0  0  0  0  0  0  0  0  0  0  0
   -6.8780   15.4717   14.0079 H   0  0  0  0  0  0  0  0  0  0  0  0
   -5.7220   15.6271   12.6796 H   0  0  0  0  0  0  0  0  0  0  0  0
   -7.5296   16.4964   11.8929 H   0  0  0  0  0  0  0  0  0  0  0  0
   -8.7835   17.1779    9.9389 H   0  0  0  0  0  0  0  0  0  0  0  0
   -9.7307   15.4946    8.3897 H   0  0  0  0  0  0  0  0  0  0  0  0
   -9.5631   13.1605    8.8890 H   0  0  0  0  0  0  0  0  0  0  0  0
   -7.9932   11.9334   13.0479 H   0  0  0  0  0  0  0  0  0  0  0  0
   -8.7797    8.1371   11.7190 H   0  0  0  0  0  0  0  0  0  0  0  0
   -8.7934   11.2979    8.8436 H   0  0  0  0  0  0  0  0  0  0  0  0
   -5.3094   15.6143   15.8780 H   0  0  0  0  0  0  0  0  0  0  0  0
   -3.3767   14.6810   17.1094 H   0  0  0  0  0  0  0  0  0  0  0  0
    0.3052   11.4055   17.4390 H   0  0  0  0  0  0  0  0  0  0  0  0
   -0.8415   10.3282   18.1599 H   0  0  0  0  0  0  0  0  0  0  0  0
    0.0513   13.0270   19.3019 H   0  0  0  0  0  0  0  0  0  0  0  0
    0.5281   11.4628   19.9083 H   0  0  0  0  0  0  0  0  0  0  0  0
   -1.7356   10.9311   20.6285 H   0  0  0  0  0  0  0  0  0  0  0  0
   -1.3573   12.5151   21.2570 H   0  0  0  0  0  0  0  0  0  0  0  0
   -3.6707   12.3544   20.2177 H   0  0  0  0  0  0  0  0  0  0  0  0
   -2.6827   13.6002   19.4918 H   0  0  0  0  0  0  0  0  0  0  0  0
   -3.8435   12.2603   17.7471 H   0  0  0  0  0  0  0  0  0  0  0  0
   -3.1373   10.7989   18.3389 H   0  0  0  0  0  0  0  0  0  0  0  0
  2  1  2  0
  3  2  1  0
  4  3  1  0
  5  4  2  0
  6  5  1  0
  7  6  1  0
  8  7  1  0
  9  8  1  0
 10  9  2  0
 11 10  1  0
 12 11  2  0
 13 12  1  0
 14  9  1  0
 14 13  2  0
 15 14  1  0
 16 15  2  0
 17 16  1  0
 18 17  2  0
 19 18  1  0
 20 19  1  0
 21 15  1  0
 21 19  2  0
 22  6  2  0
 23  3  2  0
 23 22  1  0
 24  2  1  0
 25 24  1  0
 26 25  1  0
 27 26  1  0
 28 27  1  0
 29 24  1  0
 29 28  1  0
 30  4  1  0
 31  5  1  0
 32  7  1  0
 33  7  1  0
 34 10  1  0
 35 11  1  0
 36 12  1  0
 37 13  1  0
 38 16  1  0
 39 18  1  0
 40 21  1  0
 41 22  1  0
 42 23  1  0
 43 25  1  0
 44 25  1  0
 45 26  1  0
 46 26  1  0
 47 27  1  0
 48 27  1  0
 49 28  1  0
 50 28  1  0
 51 29  1  0
 52 29  1  0
M  END
>  <ID>  (42) 
compound_32

>  <series>  (42) 
3

>  <pKi>  (42) 
8.8284

>  <FEP_pKi>  (42) 
8.0132

>  <smiles>  (42) 
O=C(c1ccc(COc2ccccc2-c2cncc(F)c2)cc1)N1CCCCC1

$$$$
compound_33
     RDKit          3D

 54 57  0  0  1  0  0  0  0  0999 V2000
   -0.6431   12.8003   15.6229 O   0  0  0  0  0  0  0  0  0  0  0  0
   -1.6900   12.7087   16.2653 C   0  0  0  0  0  0  0  0  0  0  0  0
   -2.9317   13.2512   15.6229 C   0  0  0  0  0  0  0  0  0  0  0  0
   -3.3895   12.6529   14.4329 C   0  0  0  0  0  0  0  0  0  0  0  0
   -4.4766   13.2008   13.7362 C   0  0  0  0  0  0  0  0  0  0  0  0
   -5.1227   14.3568   14.2063 C   0  0  0  0  0  0  0  0  0  0  0  0
   -6.2299   14.9761   13.3694 C   0  0  0  0  0  0  0  0  0  0  0  0
   -6.9452   13.9961   12.6103 O   0  0  0  0  0  0  0  0  0  0  0  0
   -7.7140   14.3836   11.5239 C   0  0  0  0  0  0  0  0  0  0  0  0
   -7.9117   15.7528   11.2193 C   0  0  0  0  0  0  0  0  0  0  0  0
   -8.6385   16.1445   10.0851 C   0  0  0  0  0  0  0  0  0  0  0  0
   -9.1742   15.1899    9.2230 C   0  0  0  0  0  0  0  0  0  0  0  0
   -9.0435   13.8400    9.5410 C   0  0  0  0  0  0  0  0  0  0  0  0
   -8.3292   13.4006   10.6793 C   0  0  0  0  0  0  0  0  0  0  0  0
   -8.3360   11.9407   10.9133 C   0  0  0  0  0  0  0  0  0  0  0  0
   -8.1584   11.4211   12.2032 C   0  0  0  0  0  0  0  0  0  0  0  0
   -8.2433   10.0443   12.4227 C   0  0  0  0  0  0  0  0  0  0  0  0
   -8.5839    9.1494   11.4483 C   0  0  0  0  0  0  0  0  0  0  0  0
   -8.6433    7.8486   11.8193 O   0  0  0  0  0  0  0  0  0  0  0  0
   -8.8183    9.6360   10.1668 C   0  0  0  0  0  0  0  0  0  0  0  0
   -9.2504    8.8004    9.2227 F   0  0  0  0  0  0  0  0  0  0  0  0
   -8.6431   11.0038    9.8859 C   0  0  0  0  0  0  0  0  0  0  0  0
   -4.6723   14.9597   15.4025 C   0  0  0  0  0  0  0  0  0  0  0  0
   -3.5830   14.4065   16.1134 C   0  0  0  0  0  0  0  0  0  0  0  0
   -1.7615   12.0976   17.4749 N   0  0  0  0  0  0  0  0  0  0  0  0
   -2.9702   11.9148   18.2860 C   0  0  0  0  0  0  0  0  0  0  0  0
   -2.7615   12.5185   19.6871 C   0  0  0  0  0  0  0  0  0  0  0  0
   -1.5123   11.9357   20.3722 C   0  0  0  0  0  0  0  0  0  0  0  0
   -0.2843   12.0004   19.4479 C   0  0  0  0  0  0  0  0  0  0  0  0
   -0.6093   11.4048   18.0674 C   0  0  0  0  0  0  0  0  0  0  0  0
   -2.8967   11.7798   14.0330 H   0  0  0  0  0  0  0  0  0  0  0  0
   -4.8031   12.7401   12.8227 H   0  0  0  0  0  0  0  0  0  0  0  0
   -6.9216   15.5232   14.0114 H   0  0  0  0  0  0  0  0  0  0  0  0
   -5.7317   15.6910   12.7135 H   0  0  0  0  0  0  0  0  0  0  0  0
   -7.5151   16.5420   11.8389 H   0  0  0  0  0  0  0  0  0  0  0  0
   -8.7771   17.1942    9.8723 H   0  0  0  0  0  0  0  0  0  0  0  0
   -9.7350   15.4952    8.3521 H   0  0  0  0  0  0  0  0  0  0  0  0
   -9.5640   13.1644    8.8843 H   0  0  0  0  0  0  0  0  0  0  0  0
   -7.9717   12.0472   13.0583 H   0  0  0  0  0  0  0  0  0  0  0  0
   -8.0545    9.6003   13.3814 H   0  0  0  0  0  0  0  0  0  0  0  0
   -8.6070    7.7154   12.7551 H   0  0  0  0  0  0  0  0  0  0  0  0
   -8.8003   11.3050    8.8640 H   0  0  0  0  0  0  0  0  0  0  0  0
   -5.1484   15.8574   15.7694 H   0  0  0  0  0  0  0  0  0  0  0  0
   -3.2324   14.8900   17.0148 H   0  0  0  0  0  0  0  0  0  0  0  0
   -3.1898   10.8487   18.3634 H   0  0  0  0  0  0  0  0  0  0  0  0
   -3.8433   12.3660   17.8311 H   0  0  0  0  0  0  0  0  0  0  0  0
   -3.6413   12.3434   20.3072 H   0  0  0  0  0  0  0  0  0  0  0  0
   -2.6599   13.6001   19.6000 H   0  0  0  0  0  0  0  0  0  0  0  0
   -1.3117   12.4616   21.3066 H   0  0  0  0  0  0  0  0  0  0  0  0
   -1.7033   10.8951   20.6399 H   0  0  0  0  0  0  0  0  0  0  0  0
    0.0459   13.0328   19.3305 H   0  0  0  0  0  0  0  0  0  0  0  0
    0.5485   11.4623   19.9018 H   0  0  0  0  0  0  0  0  0  0  0  0
   -0.8589   10.3490   18.1632 H   0  0  0  0  0  0  0  0  0  0  0  0
    0.2795   11.4349   17.4398 H   0  0  0  0  0  0  0  0  0  0  0  0
  2  1  2  0
  3  2  1  0
  4  3  1  0
  5  4  2  0
  6  5  1  0
  7  6  1  0
  8  7  1  0
  9  8  1  0
 10  9  2  0
 11 10  1  0
 12 11  2  0
 13 12  1  0
 14  9  1  0
 14 13  2  0
 15 14  1  0
 16 15  1  0
 17 16  2  0
 18 17  1  0
 19 18  1  0
 20 18  2  0
 21 20  1  0
 22 15  2  0
 22 20  1  0
 23  6  2  0
 24  3  2  0
 24 23  1  0
 25  2  1  0
 26 25  1  0
 27 26  1  0
 28 27  1  0
 29 28  1  0
 30 25  1  0
 30 29  1  0
 31  4  1  0
 32  5  1  0
 33  7  1  0
 34  7  1  0
 35 10  1  0
 36 11  1  0
 37 12  1  0
 38 13  1  0
 39 16  1  0
 40 17  1  0
 41 19  1  0
 42 22  1  0
 43 23  1  0
 44 24  1  0
 45 26  1  0
 46 26  1  0
 47 27  1  0
 48 27  1  0
 49 28  1  0
 50 28  1  0
 51 29  1  0
 52 29  1  0
 53 30  1  0
 54 30  1  0
M  END
>  <ID>  (43) 
compound_33

>  <series>  (43) 
3

>  <pKi>  (43) 
8.6361

>  <FEP_pKi>  (43) 
8.7317

>  <smiles>  (43) 
O=C(c1ccc(COc2ccccc2-c2ccc(O)c(F)c2)cc1)N1CCCCC1

$$$$
